#RADIOSS STARTER
##========================================================================================
##
## Radioss Input Deck Generated by HyperMesh Version  : 2026.0.0.27
## Generated using HyperMesh-Radioss Template Version : 2026.0.0.27-290296
## Date: 03-06-2026   Time: 18:09:02
##
##========================================================================================
##
##
/BEGIN
#Runname                                                                        
solid-openradioss                                                           
#   Invers      Irun
      2024         0
#    Input_mass_unit   Input_length_unit     Input_time_unit
                  kg                   m                   s
#     Work_mass_unit    Work_length_unit      Work_time_unit
                  kg                   m                   s
##
#---1----|----2----|----3----|----4----|----5----|----6----|----7----|----8----|----9----|---10----|
/NODE
#  node_ID                  Xc                  Yc                  Zc
      2614               7.565                 0.0                 0.0
      2615               7.565   0.055555555555555                 0.0
      2616               7.565   0.111111111111111                 0.0
      2617               7.565   0.166666666666667                 0.0
      2618               7.565   0.2222222222222222.77555756156289E-17
      2619               7.565   0.277777777777778-2.7755575615629E-17
      2620               7.565   0.333333333333333                 0.0
      2621               7.565   0.388888888888889                 0.0
      2622               7.565   0.444444444444445                 0.0
      2623               7.565                 0.5                 0.0
      2624               7.565   0.555555555555555                 0.0
      2625               7.565   0.611111111111111                 0.0
      2626               7.565   0.666666666666667                 0.0
      2627               7.565   0.722222222222222                 0.0
      2628               7.565   0.777777777777778-2.7755575615629E-17
      2629               7.565   0.8333333333333332.77555756156289E-17
      2630               7.565   0.888888888888889-2.7755575615629E-17
      2631               7.565   0.944444444444444-2.7755575615629E-17
      2632               7.565                 1.0                 0.0
      2633               7.565    1.05555555555556-2.7755575615629E-17
# ... 4052 like lines cut
#---1----|----2----|----3----|----4----|----5----|----6----|----7----|----8----|----9----|---10----|
/BRIC20/1
#  bric_ID  node_ID1  node_ID2  node_ID3  node_ID4  node_ID5  node_ID6  node_ID7  node_ID8
# node_ID9 node_ID10 node_ID11 node_ID12 node_ID13 node_ID14 node_ID15 node_ID16
#node_ID17 node_ID18 node_ID19 node_ID20
       217      2731      2848      2852      2732      2906      2907      2908      2909
      4365      4829      4371      4364      4367      4831      4843      4374
      5017      5023      5027      5018
       218      2906      2907      2908      2909      2910      2911      2912      2913
      5017      5023      5027      5018      5019      5024      5028      5032
      5035      5042      5046      5036
       219      2910      2911      2912      2913      2914      2915      2916      2917
      5035      5042      5046      5036      5037      5043      5047      5051
      5055      5060      5065      5056
       220      2617      2899      2901      2618      2918      2919      2920      2921
      3797      5000      3803      3796      3799      5003      5006      3805
      5072      5078      5082      5073
       221      2918      2919      2920      2921      2922      2923      2924      2925
      5072      5078      5082      5073      5074      5079      5083      5087
      5090      5097      5101      5091
       222      2922      2923      2924      2925      2926      2927      2928      2929
      5090      5097      5101      5091      5092      5098      5102      5106
      5110      5114      5119      5111
       223      2636      2867      2857      2637      2930      2931      2932      2933
      3898      4859      3902      3896      3899      4891      4860      3905
# ... 1924 like lines cut
#---1----|----2----|----3----|----4----|----5----|----6----|----7----|----8----|----9----|---10----|
#-  1. PART:                                                                    
#---1----|----2----|----3----|----4----|----5----|----6----|----7----|----8----|----9----|---10----|
/PART/1
#part_title                                                                                         
beamPart                                                                                            
#  prop_ID    mat_ID                         Thick
         1         1                              
#---1----|----2----|----3----|----4----|----5----|----6----|----7----|----8----|----9----|---10----|
#-  2. MATERIAL DEFINITION:                                                                    
#---1----|----2----|----3----|----4----|----5----|----6----|----7----|----8----|----9----|---10----|
/MAT/ELAST/1
beamMaterial                                                                                        
#              RHO_I
              2700.0
#                  E                  nu
       70000000000.0                 0.3
#---1----|----2----|----3----|----4----|----5----|----6----|----7----|----8----|----9----|---10----|
#-  3. PROPERTIES DEFINITION:                                                                    
#---1----|----2----|----3----|----4----|----5----|----6----|----7----|----8----|----9----|---10----|
/PROP/SOLID/1
beamProperty                                                                                        
#   Isolid    Ismstr      Iale     Icpre  Itetra10     Inpts   Itetra4    Iframe                  Dn
        16         0         0         0         0         0         0         0                 0.0
#                 qa                  qb                   h              Lambda                  Mu
                 0.0                 0.0                 0.0                 0.0                 0.0
#         deltaT_min            Vdef_min            Vdef_max             ASP_max             COL_min
                 0.0                 0.0                 0.0                 0.0                 0.0
#---1----|----2----|----3----|----4----|----5----|----6----|----7----|----8----|----9----|---10----|
#-  4. BOUNDARY CONDITIONS:                                                                    
#---1----|----2----|----3----|----4----|----5----|----6----|----7----|----8----|----9----|---10----|
/BCS/1
fixedWallZ0                                                                                         
#  Tra rot   skew_ID  grnod_ID
   111 000         0         1
#---1----|----2----|----3----|----4----|----5----|----6----|----7----|----8----|----9----|---10----|
/GRNOD/NODE/1
#title                                                                                              
fixedEnd
# item_ID1  item_ID2  item_ID3  item_ID4  item_ID5  item_ID6  item_ID7  item_ID8  item_ID9 item_ID10
      2614      2761      2762      2763      3662      3663      3664      3665      3666      3667
      3695      3696      3699      3700      3703      3704      3783      3785      4514      4515      
	  4516      4519      4523      7693      7694      7697      7698      7700      7701      7704      
	  7706      7708      7710      7762      7764      7768      7774      7776      7780      7786
#---1----|----2----|----3----|----4----|----5----|----6----|----7----|----8----|----9----|---10----|
#-  5. INTERFACES:                                                                    
#---1----|----2----|----3----|----4----|----5----|----6----|----7----|----8----|----9----|---10----|
/GRNOD/NODE/2
#title                                                                                              
interface
# item_ID1  item_ID2  item_ID3  item_ID4  item_ID5  item_ID6  item_ID7  item_ID8  item_ID9 item_ID10
      2614      2615      2616      2617      2618      2619      2620      2621      2622      2623
      2624      2625      2626      2627      2628      2629      2630      2631      2632      2633
      2634      2635      2636      2637      2638      2639      2640      2641      2642      2643
      2644      2645      2646      2647      2648      2649      2650      2651      2652      2653
      2654      2655      2656      2657      2658      2659      2660      2661      2662      2663
      2664      2665      2666      2667      2668      2669      2670      2671      2672      2673
      2674      2675      2676      2677      2678      2679      2680      2681      2682      2683
      2684      2685      2686      2687      2688      2689      2690      2691      2692      2693
      2694      2695      2696      2697      2698      2699      2700      2701      2702      2703
      2704      2705      2706      2707      2708      2709      2710      2711      2712      2713
      2714      2715      2716      2717      2718      2719      2720      2721      2722      2723
      2724      2725      2726      2727      2728      2729      2730      2731      2732      2733
      2734      2735      2736      2737      2738      2739      2740      2741      2742      2743
      2744      2745      2746      2747      2748      2749      2750      2751      2752      2753
      2754      2755      2756      2757      2758      2759      2760      2761      2762      2763
      2764      2765      2766      2767      2768      2769      2770      2771      2772      2773
      2774      2775      2776      2777      2778      2779      2780      2781      2782      2783
      2784      2785      2786      2787      2788      2789      2790      2791      2792      2793
      2794      2795      2796      2797      2798      2799      2800      2801      2802      2803
      2804      2805      2806      2807      2808      2809      2810      2811      2812      2813
# ... 143 like lines cut
##--------------------------------------------------------------------------------------------------
## End Of Radioss Block Deck
##--------------------------------------------------------------------------------------------------
/END