#RADIOSS STARTER
##========================================================================================
##
## Radioss Input Deck Generated by HyperMesh Version  : 2026.0.0.27
## Generated using HyperMesh-Radioss Template Version : 2026.0.0.27-290296
## Date: 03-06-2026   Time: 17:14:32
##
##========================================================================================
##
##
/BEGIN
#Runname                                                                        
solid-openradioss                                                              
#   Invers      Irun
      2024         0
#    Input_mass_unit   Input_length_unit     Input_time_unit
                  kg                   m                   s
#     Work_mass_unit    Work_length_unit      Work_time_unit
                  kg                   m                   s
##
#---1----|----2----|----3----|----4----|----5----|----6----|----7----|----8----|----9----|---10----|
/NODE
#  node_ID                  Xc                  Yc                  Zc
      2614               7.475                 0.0                 0.0
      2615               7.475                0.05                 0.0
      2616               7.475                 0.1                 0.0
      2617               7.475                0.15                 0.0
      2618               7.475                 0.2                 0.0
      2619               7.475                0.25                 0.0
      2620               7.475                 0.3-2.7755575615629E-17
      2621               7.475                0.35                 0.0
      2622               7.475                 0.4-2.7755575615629E-17
      2623               7.475                0.45                 0.0
      2624               7.475                 0.5                 0.0
      2625               7.475                0.55                 0.0
      2626               7.475                 0.6                 0.0
      2627               7.475                0.65                 0.0
      2628               7.475                 0.7                 0.0
      2629               7.475                0.75                 0.0
      2630               7.475                 0.8                 0.0
      2631               7.475                0.85                 0.0
      2632               7.475                 0.9                 0.0
      2633               7.475                0.95                 0.0
# ... 4500 like lines cut
#---1----|----2----|----3----|----4----|----5----|----6----|----7----|----8----|----9----|---10----|
/BRIC20/1
#  bric_ID  node_ID1  node_ID2  node_ID3  node_ID4  node_ID5  node_ID6  node_ID7  node_ID8
# node_ID9 node_ID10 node_ID11 node_ID12 node_ID13 node_ID14 node_ID15 node_ID16
#node_ID17 node_ID18 node_ID19 node_ID20
       241      2624      2901      2918      2625      2938      2939      2940      2941
      3965      5127      3971      3964      3967      5130      5188      3974
      5249      5255      5259      5250
       242      2938      2939      2940      2941      2942      2943      2944      2945
      5249      5255      5259      5250      5251      5256      5260      5264
      5267      5274      5278      5268
       243      2942      2943      2944      2945      2946      2947      2948      2949
      5267      5274      5278      5268      5269      5275      5279      5283
      5287      5291      5296      5288
       244      2653      2869      2781      2654      2950      2951      2952      2953
      4116      4709      4120      4114      4117      5026      4710      4123
      5304      5310      5314      5305
       245      2950      2951      2952      2953      2954      2955      2956      2957
      5304      5310      5314      5305      5306      5311      5315      5319
      5322      5329      5333      5323
       246      2954      2955      2956      2957      2958      2959      2960      2961
      5322      5329      5333      5323      5324      5330      5334      5338
      5342      5347      5352      5343
       247      2875      2874      2876      2877      2962      2963      2964      2965
      5037      5038      5048      5044      5047      5042      5049      5050
# ... 2140 like lines cut
#---1----|----2----|----3----|----4----|----5----|----6----|----7----|----8----|----9----|---10----|
#-  1. PART:                                                                    
#---1----|----2----|----3----|----4----|----5----|----6----|----7----|----8----|----9----|---10----|
/PART/1
#part_title                                                                                         
beamPart                                                                                            
#  prop_ID    mat_ID                         Thick
         1         1                              
#---1----|----2----|----3----|----4----|----5----|----6----|----7----|----8----|----9----|---10----|
#-  2. MATERIAL DEFINITION:                                                                    
#---1----|----2----|----3----|----4----|----5----|----6----|----7----|----8----|----9----|---10----|
/MAT/ELAST/1
beamMaterial                                                                                        
#              RHO_I
              2700.0
#                  E                  nu
       70000000000.0                 0.3
#---1----|----2----|----3----|----4----|----5----|----6----|----7----|----8----|----9----|---10----|
#-  3. PROPERTIES DEFINITION:                                                                    
#---1----|----2----|----3----|----4----|----5----|----6----|----7----|----8----|----9----|---10----|
/PROP/SOLID/1
beamProperty                                                                                        
#   Isolid    Ismstr      Iale     Icpre  Itetra10     Inpts   Itetra4    Iframe                  Dn
        16         0         0         0         0         0         0         0                 0.0
#                 qa                  qb                   h              Lambda                  Mu
                 0.0                 0.0                 0.0                 0.0                 0.0
#         deltaT_min            Vdef_min            Vdef_max             ASP_max             COL_min
                 0.0                 0.0                 0.0                 0.0                 0.0
#---1----|----2----|----3----|----4----|----5----|----6----|----7----|----8----|----9----|---10----|
#-  4. BOUNDARY CONDITIONS:                                                                    
#---1----|----2----|----3----|----4----|----5----|----6----|----7----|----8----|----9----|---10----|
/BCS/1
fixedWallZ0                                                                                         
#  Tra rot   skew_ID  grnod_ID
   111 000         0         1
#---1----|----2----|----3----|----4----|----5----|----6----|----7----|----8----|----9----|---10----|
/GRNOD/NODE/1
#title                                                                                              
fixedEnd
# item_ID1  item_ID2  item_ID3  item_ID4  item_ID5  item_ID6  item_ID7  item_ID8  item_ID9 item_ID10
      2614      2777      2778      2779      3313      3314      3317      3318      3321      3322
      3427      3429      3431      3649      3651      3653      3911      3913      4691      4692
      4693      4696      4699      6734      6736      6738      6742      6743      6752      6754
      6757      6761      6763      6772      6775      6779      7175      7182      7890      7897
#---1----|----2----|----3----|----4----|----5----|----6----|----7----|----8----|----9----|---10----|
#-  5. INTERFACES:                                                                    
#---1----|----2----|----3----|----4----|----5----|----6----|----7----|----8----|----9----|---10----|
/GRNOD/NODE/2
#title                                                                                              
interface
# item_ID1  item_ID2  item_ID3  item_ID4  item_ID5  item_ID6  item_ID7  item_ID8  item_ID9 item_ID10
      2614      2615      2616      2617      2618      2619      2620      2621      2622      2623
      2624      2625      2626      2627      2628      2629      2630      2631      2632      2633
      2634      2635      2636      2637      2638      2639      2640      2641      2642      2643
      2644      2645      2646      2647      2648      2649      2650      2651      2652      2653
      2654      2655      2656      2657      2658      2659      2660      2661      2662      2663
      2664      2665      2666      2667      2668      2669      2670      2671      2672      2673
      2674      2675      2676      2677      2678      2679      2680      2681      2682      2683
      2684      2685      2686      2687      2688      2689      2690      2691      2692      2693
      2694      2695      2696      2697      2698      2699      2700      2701      2702      2703
      2704      2705      2706      2707      2708      2709      2710      2711      2712      2713
      2714      2715      2716      2717      2718      2719      2720      2721      2722      2723
      2724      2725      2726      2727      2728      2729      2730      2731      2732      2733
      2734      2735      2736      2737      2738      2739      2740      2741      2742      2743
      2744      2745      2746      2747      2748      2749      2750      2751      2752      2753
      2754      2755      2756      2757      2758      2759      2760      2761      2762      2763
      2764      2765      2766      2767      2768      2769      2770      2771      2772      2773
      2774      2775      2776      2777      2778      2779      2780      2781      2782      2783
      2784      2785      2786      2787      2788      2789      2790      2791      2792      2793
      2794      2795      2796      2797      2798      2799      2800      2801      2802      2803
      2804      2805      2806      2807      2808      2809      2810      2811      2812      2813
# ... 160 like lines cut
##--------------------------------------------------------------------------------------------------
## End Of Radioss Block Deck
##--------------------------------------------------------------------------------------------------
/END