#RADIOSS STARTER
##========================================================================================
##
## Radioss Input Deck Generated by HyperMesh Version  : 2025.0.0.24
## Generated using HyperMesh-Radioss Template Version : 2025.0.0.24-168648
## Date: 01-20-2026   Time: 21:24:51
##
##========================================================================================
##
##
/BEGIN
#Runname                                                                        
s1Test2                                                                        
#   Invers      Irun
      2024         0
#    Input_mass_unit   Input_length_unit     Input_time_unit
                  kg                   m                   s
#     Work_mass_unit    Work_length_unit      Work_time_unit
                  kg                   m                   s
##
#---1----|----2----|----3----|----4----|----5----|----6----|----7----|----8----|----9----|---10----|
/NODE
#  node_ID                  Xc                  Yc                  Zc
         1                 0.0                 0.0                 0.0
         2                0.05                 0.0                 0.0
         3                 0.1                 0.0                 0.0
         4                0.15                 0.08.88178419700125E-16
         5                 0.2                 0.0                 0.0
         6                0.25                 0.0                 0.0
         7                 0.3                 0.0                 0.0
         8                0.35                 0.0                 0.0
         9                 0.4                 0.0                 0.0
        10                0.45                 0.0                 0.0
        11                 0.5                 0.0                 0.0
        12                 0.5                 0.0                0.05
        13                 0.5                 0.0   0.100000000000001
        14                 0.5                 0.0                0.15
        15                 0.5                 0.0                 0.2
        16                 0.5                 0.0                0.25
        17                 0.5                 0.0   0.300000000000001
        18                 0.5                 0.0                0.35
        19                 0.5                 0.0                 0.4
        20                 0.5                 0.0   0.449999999999999
# ... 14621 like lines cut
#---1----|----2----|----3----|----4----|----5----|----6----|----7----|----8----|----9----|---10----|
/BRICK/1
# brick_ID  node_ID1  node_ID2  node_ID3  node_ID4  node_ID5  node_ID6  node_ID7  node_ID8
      1201       365       366       353       352      1332      1333      1334      1335
      1202      1332      1333      1334      1335      1336      1337      1338      1339
      1203      1336      1337      1338      1339      1340      1341      1342      1343
      1204      1340      1341      1342      1343      1344      1345      1346      1347
      1205      1344      1345      1346      1347      1348      1349      1350      1351
      1206      1348      1349      1350      1351      1352      1353      1354      1355
      1207      1352      1353      1354      1355      1356      1357      1358      1359
      1208      1356      1357      1358      1359      1360      1361      1362      1363
      1209      1360      1361      1362      1363      1364      1365      1366      1367
      1210      1364      1365      1366      1367      1368      1369      1370      1371
      1211       371       369       368       370      1372      1373      1374      1375
      1212      1372      1373      1374      1375      1376      1377      1378      1379
      1213      1376      1377      1378      1379      1380      1381      1382      1383
      1214      1380      1381      1382      1383      1384      1385      1386      1387
      1215      1384      1385      1386      1387      1388      1389      1390      1391
      1216      1388      1389      1390      1391      1392      1393      1394      1395
      1217      1392      1393      1394      1395      1396      1397      1398      1399
      1218      1396      1397      1398      1399      1400      1401      1402      1403
      1219      1400      1401      1402      1403      1404      1405      1406      1407
      1220      1404      1405      1406      1407      1408      1409      1410      1411
# ... 11980 like lines cut
#---1----|----2----|----3----|----4----|----5----|----6----|----7----|----8----|----9----|---10----|
#-  1. PART:                                                                    
#---1----|----2----|----3----|----4----|----5----|----6----|----7----|----8----|----9----|---10----|
/PART/1
#part_title                                                                                         
beamPart                                                                                            
#  prop_ID    mat_ID                         Thick
         1         1                              
#---1----|----2----|----3----|----4----|----5----|----6----|----7----|----8----|----9----|---10----|
#-  2. MATERIAL DEFINITION:                                                                    
#---1----|----2----|----3----|----4----|----5----|----6----|----7----|----8----|----9----|---10----|
/MAT/ELAST/1
beamMaterial                                                                                        
#              RHO_I
              7800.0
#                  E                  nu
      210000000000.0                 0.3
#---1----|----2----|----3----|----4----|----5----|----6----|----7----|----8----|----9----|---10----|
#-  3. PROPERTIES DEFINITION:                                                                    
#---1----|----2----|----3----|----4----|----5----|----6----|----7----|----8----|----9----|---10----|
/PROP/SOLID/1
beamProperty                                                                                        
#   Isolid    Ismstr      Iale     Icpre  Itetra10     Inpts   Itetra4    Iframe                  Dn
        24         0         0         0         0         0         0         0                 0.0
#                 qa                  qb                   h              Lambda                  Mu
                 0.0                 0.0                 0.0                 0.0                 0.0
#         deltaT_min            Vdef_min            Vdef_max             ASP_max             COL_min
                 0.0                 0.0                 0.0                 0.0                 0.0
#---1----|----2----|----3----|----4----|----5----|----6----|----7----|----8----|----9----|---10----|
#-  4. BOUNDARY CONDITIONS:                                                                    
#---1----|----2----|----3----|----4----|----5----|----6----|----7----|----8----|----9----|---10----|
/BCS/1
fixedWallZ0                                                                                         
#  Tra rot   skew_ID  grnod_ID
   111 000         0         1
#---1----|----2----|----3----|----4----|----5----|----6----|----7----|----8----|----9----|---10----|
/GRNOD/NODE/1
#title                                                                                              
Z0                                                                                                  
# item_ID1  item_ID2  item_ID3  item_ID4  item_ID5  item_ID6  item_ID7  item_ID8  item_ID9 item_ID10
         1         2         3         4         5         6         7         8         9        10
        11      5852      5853      5855      5856      5858      5859      5861      5862      5864
      5865      5867      5868      5870      5871      5873      5874      5876      5877      5879
      5880      6423      6424      6427      6428      6431      6432      6435      6436      6439
      6440      6443      6444      6447      6448      6451      6452      6455      6456      6459
      6460     10392     10394     10396     10398     10400     10402     10404     10406     10408
     10410     10902     10903     10904     10905     10906     10907     10908     10909     10910
     10911     11823     11825     11827     11829     11831     11833     11835     11837     11839
     11841     13882     13883     13884     13885     13886     13887     13888     13889     13890
     13891     14372     14373     14374     14375     14376     14377     14378     14379     14380
     14381     14382     14383     14384     14385     14386     14387     14388     14389     14390
     14391     14562     14564     14566     14568     14570     14572     14574     14576     14578
     14580
#---1----|----2----|----3----|----4----|----5----|----6----|----7----|----8----|----9----|---10----|
#-  5. INTERFACE:                                                                    
#---1----|----2----|----3----|----4----|----5----|----6----|----7----|----8----|----9----|---10----|
/GRNOD/NODE/2
#title                                                                                              
Z_Interface_s1                                                                                      
# item_ID1  item_ID2  item_ID3  item_ID4  item_ID5  item_ID6  item_ID7  item_ID8  item_ID9 item_ID10
       131       132       133       134       135       136       137       138       139       140
       141      3912      3915      3916      3919      3920      3923      3924      3927      3928
      3931      3932      3935      3936      3939      3940      3943      3944      3947      3948
      3951      8533      8535      8537      8539      8541      8543      8545      8547      8549
      8551      9872      9873      9874      9875      9876      9877      9878      9879      9880
      9881      9882      9883      9884      9885      9886      9887      9888      9889      9890
      9891     10732     10735     10736     10739     10740     10743     10744     10747     10748
     10751     10752     10755     10756     10759     10760     10763     10764     10767     10768
     10771     13633     13635     13637     13639     13641     13643     13645     13647     13649
     13651     14102     14103     14104     14105     14106     14107     14108     14109     14110
     14111     14112     14113     14114     14115     14116     14117     14118     14119     14120
     14121     14412     14414     14416     14418     14420     14422     14424     14426     14428
     14430
#---1----|----2----|----3----|----4----|----5----|----6----|----7----|----8----|----9----|---10----|
#-  6. TIME HISTORIES:                                                                    
#---1----|----2----|----3----|----4----|----5----|----6----|----7----|----8----|----9----|---10----|
/TH/NODE/1
#thgroup_name
outputZ0                                                                                            
#  var_ID1   var_ID2   var_ID3   var_ID4   var_ID5   var_ID6   var_ID7   var_ID8   var_ID9  var_ID10
     REACX     REACY     REACZ       
#  node_ID   skew_ID                                         node_name
         1         0                                                                                
         2         0                                                                                
         3         0                                                                                
         4         0                                                                                
         5         0                                                                                
         6         0                                                                                
         7         0                                                                                
         8         0                                                                                
         9         0                                                                                
        10         0                                                                                
        11         0                                                                                
      5852         0                                                                                
      5853         0                                                                                
      5855         0                                                                                
      5856         0                                                                                
      5858         0                                                                                
      5859         0                                                                                
      5861         0                                                                                
      5862         0                                                                                
      5864         0                                                                                
# ... 101 like lines cut
#---1----|----2----|----3----|----4----|----5----|----6----|----7----|----8----|----9----|---10----|
/TH/NODE/2
#thgroup_name
outputDisplacement                                                                                  
#  var_ID1   var_ID2   var_ID3   var_ID4   var_ID5   var_ID6   var_ID7   var_ID8   var_ID9  var_ID10
        DX        DY        DZ       
#  node_ID   skew_ID                                         node_name
      9679         0                                                                                
      9680         0                                                                                
     11711         0                                                                                
     13920         0                                                                                
     14100         0
#---1----|----2----|----3----|----4----|----5----|----6----|----7----|----8----|----9----|---10----|
/TH/NODE/3
#thgroup_name
outputInterface_s1                                                                                     
#  var_ID1   var_ID2   var_ID3   var_ID4   var_ID5   var_ID6   var_ID7   var_ID8   var_ID9  var_ID10
        DX        DY        DZ       
#  node_ID   skew_ID                                         node_name
       131         0                                                                                
       132         0                                                                                
       133         0                                                                                
       134         0                                                                                
       135         0                                                                                
       136         0                                                                                
       137         0                                                                                
       138         0                                                                                
       139         0                                                                                
       140         0                                                                                
       141         0                                                                                
      3912         0                                                                                
      3915         0                                                                                
      3916         0                                                                                
      3919         0                                                                                
      3920         0                                                                                
      3923         0                                                                                
      3924         0                                                                                
      3927         0                                                                                
      3928         0                                                                                
# ... 101 like lines cut
##--------------------------------------------------------------------------------------------------
## End Of Radioss Block Deck
##--------------------------------------------------------------------------------------------------
/END