#RADIOSS STARTER
##========================================================================================
##
## Radioss Input Deck Generated by HyperMesh Version  : 2025.0.0.24
## Generated using HyperMesh-Radioss Template Version : 2025.0.0.24-168648
## Date: 01-20-2026   Time: 21:38:38
##
##========================================================================================
##
##
/BEGIN
#Runname                                                                        
s2Test2                                                                         
#   Invers      Irun
      2024         0
#    Input_mass_unit   Input_length_unit     Input_time_unit
                  kg                   m                   s
#     Work_mass_unit    Work_length_unit      Work_time_unit
                  kg                   m                   s
##
#---1----|----2----|----3----|----4----|----5----|----6----|----7----|----8----|----9----|---10----|
/NODE
#  node_ID                  Xc                  Yc                  Zc
         1                 0.0                 0.0                 6.0
         2                0.05                 0.0                 6.0
         3                 0.1                 0.0                 6.0
         4                0.15                 0.0                 6.0
         5                 0.2                 0.0                 6.0
         6                0.25                 0.0                 6.0
         7                 0.3                 0.0                 6.0
         8                0.35                 0.0                 6.0
         9                 0.4                 0.0                 6.0
        10                0.45                 0.0                 6.0
        11                 0.5                 0.0                 6.0
        12                 0.5                 0.0                6.05
        13                 0.5                 0.0                 6.1
        14                 0.5                 0.0                6.15
        15                 0.5                 0.0                 6.2
        16                 0.5                 0.0                6.25
        17                 0.5                 0.0                 6.3
        18                 0.5                 0.0                6.35
        19                 0.5                 0.0                 6.4
        20                 0.5                 0.0                6.45
# ... 4941 like lines cut
#---1----|----2----|----3----|----4----|----5----|----6----|----7----|----8----|----9----|---10----|
/BRICK/1
# brick_ID  node_ID1  node_ID2  node_ID3  node_ID4  node_ID5  node_ID6  node_ID7  node_ID8
       401       204       205       277       248       452       453       454       455
       402       452       453       454       455       456       457       458       459
       403       456       457       458       459       460       461       462       463
       404       460       461       462       463       464       465       466       467
       405       464       465       466       467       468       469       470       471
       406       468       469       470       471       472       473       474       475
       407       472       473       474       475       476       477       478       479
       408       476       477       478       479       480       481       482       483
       409       480       481       482       483       484       485       486       487
       410       484       485       486       487       488       489       490       491
       411       116       183       171       117       492       493       494       495
       412       492       493       494       495       496       497       498       499
       413       496       497       498       499       500       501       502       503
       414       500       501       502       503       504       505       506       507
       415       504       505       506       507       508       509       510       511
       416       508       509       510       511       512       513       514       515
       417       512       513       514       515       516       517       518       519
       418       516       517       518       519       520       521       522       523
       419       520       521       522       523       524       525       526       527
       420       524       525       526       527       528       529       530       531
# ... 3980 like lines cut
#---1----|----2----|----3----|----4----|----5----|----6----|----7----|----8----|----9----|---10----|
#-  1. PART:                                                                    
#---1----|----2----|----3----|----4----|----5----|----6----|----7----|----8----|----9----|---10----|
/PART/1
#part_title                                                                                         
beamPart                                                                                            
#  prop_ID    mat_ID                         Thick
         1         1                              
#---1----|----2----|----3----|----4----|----5----|----6----|----7----|----8----|----9----|---10----|
#-  2. MATERIAL DEFINITION:                                                                    
#---1----|----2----|----3----|----4----|----5----|----6----|----7----|----8----|----9----|---10----|
/MAT/ELAST/1
beamMaterial                                                                                        
#              RHO_I
              7800.0
#                  E                  nu
      210000000000.0                 0.3
#---1----|----2----|----3----|----4----|----5----|----6----|----7----|----8----|----9----|---10----|
#-  3. PROPERTIES DEFINITION:                                                                    
#---1----|----2----|----3----|----4----|----5----|----6----|----7----|----8----|----9----|---10----|
/PROP/SOLID/1
beamProperty                                                                                        
#   Isolid    Ismstr      Iale     Icpre  Itetra10     Inpts   Itetra4    Iframe                  Dn
        24         0         0         0         0         0         0         0                 0.0
#                 qa                  qb                   h              Lambda                  Mu
                 0.0                 0.0                 0.0                 0.0                 0.0
#         deltaT_min            Vdef_min            Vdef_max             ASP_max             COL_min
                 0.0                 0.0                 0.0                 0.0                 0.0
#---1----|----2----|----3----|----4----|----5----|----6----|----7----|----8----|----9----|---10----|
#-  4. BOUNDARY CONDITIONS:                                                                    
#---1----|----2----|----3----|----4----|----5----|----6----|----7----|----8----|----9----|---10----|
/BCS/1
fixedWallZ8                                                                                         
#  Tra rot   skew_ID  grnod_ID
   111 000         0         1
#---1----|----2----|----3----|----4----|----5----|----6----|----7----|----8----|----9----|---10----|
/GRNOD/NODE/1
#title                                                                                              
Z8                                                                                                  
# item_ID1  item_ID2  item_ID3  item_ID4  item_ID5  item_ID6  item_ID7  item_ID8  item_ID9 item_ID10
        51        52        53        54        55        56        57        58        59        60
        61       852       855       856       859       860       863       864       867       868
       871       872       875       876       879       880       883       884       887       888
       891      1502      1504      1505      1507      1508      1510      1511      1513      1514
      1516      1517      1519      1520      1522      1523      1525      1526      1528      1529
      1531      2582      2583      2585      2586      2588      2589      2591      2592      2594
      2595      2597      2598      2600      2601      2603      2604      2606      2607      2609
      2610      3772      3774      3776      3778      3780      3782      3784      3786      3788
      3790      4012      4013      4014      4015      4016      4017      4018      4019      4020
      4021      4902      4903      4904      4905      4906      4907      4908      4909      4910
      4911      4942      4943      4944      4945      4946      4947      4948      4949      4950
      4951      4952      4953      4954      4955      4956      4957      4958      4959      4960
      4961
#---1----|----2----|----3----|----4----|----5----|----6----|----7----|----8----|----9----|---10----|
#-  5. INTERFACE:                                                                    
#---1----|----2----|----3----|----4----|----5----|----6----|----7----|----8----|----9----|---10----|
/GRNOD/NODE/2
#title                                                                                              
Z_Interface_s2                                                                                      
# item_ID1  item_ID2  item_ID3  item_ID4  item_ID5  item_ID6  item_ID7  item_ID8  item_ID9 item_ID10
         1         2         3         4         5         6         7         8         9        10
        11      2492      2494      2495      2497      2498      2500      2501      2503      2504
      2506      2507      2509      2510      2512      2513      2515      2516      2518      2519
      2521      2723      2724      2727      2728      2731      2732      2735      2736      2739
      2740      2743      2744      2747      2748      2751      2752      2755      2756      2759
      2760      3122      3123      3125      3126      3128      3129      3131      3132      3134
      3135      3137      3138      3140      3141      3143      3144      3146      3147      3149
      3150      3333      3334      3337      3338      3341      3342      3345      3346      3349
      3350      3353      3354      3357      3358      3361      3362      3365      3366      3369
      3370      3902      3903      3904      3905      3906      3907      3908      3909      3910
      3911      4362      4363      4364      4365      4366      4367      4368      4369      4370
      4371      4372      4373      4374      4375      4376      4377      4378      4379      4380
      4381
#---1----|----2----|----3----|----4----|----5----|----6----|----7----|----8----|----9----|---10----|
#-  6. LOADS:                                                                    
#---1----|----2----|----3----|----4----|----5----|----6----|----7----|----8----|----9----|---10----|
/PLOAD/1
upperSurfaceLoad                                                                                               
#  surf_ID  functIDT sensor_ID                                          Ascale_x            Fscale_y
         3         1         0                                                                      
#---1----|----2----|----3----|----4----|----5----|----6----|----7----|----8----|----9----|---10----|
/FUNCT/1
#title                                                                                              
curve1                                                                                              
#                  X                   Y
                 0.0                 0.0
                 1.0          -1828570.0 
                 3.0          -1828570.0
#---1----|----2----|----3----|----4----|----5----|----6----|----7----|----8----|----9----|---10----|
/SURF/SEG/3
#title                                                                                              
loadedUpperSurface                                                                                  
#   seg_ID  node_ID1  node_ID2  node_ID3  node_ID4
         1       491       488       489       490
         2       531       528       529       530
         3       571       568       569       570
         4       611       608       609       610
         5       651       648       649       650
         6       691       688       689       690
         7       731       728       729       730
         8       771       768       769       770
         9       811       808       809       810
        10       851       848       849       850
        11       891       888       889       890
        12       931       928       929       930
        13       971       968       969       970
        14      1011      1008      1009      1010
        15      1051      1048      1049      1050
        16      1091      1088      1089      1090
        17       770       769      1110      1111
        18       569      1139      1140      1141
        19      1181      1178      1179      1180
        20      1221      1218      1219      1220
# ... 380 like lines cut
#---1----|----2----|----3----|----4----|----5----|----6----|----7----|----8----|----9----|---10----|
#-  6. TIME HISTORIES:                                                                    
#---1----|----2----|----3----|----4----|----5----|----6----|----7----|----8----|----9----|---10----|
/TH/NODE/1
#thgroup_name
outputZ8                                                                                            
#  var_ID1   var_ID2   var_ID3   var_ID4   var_ID5   var_ID6   var_ID7   var_ID8   var_ID9  var_ID10
     REACX     REACY     REACZ       
#  node_ID   skew_ID                                         node_name
        51         0                                                                                
        52         0                                                                                
        53         0                                                                                
        54         0                                                                                
        55         0                                                                                
        56         0                                                                                
        57         0                                                                                
        58         0                                                                                
        59         0                                                                                
        60         0                                                                                
        61         0                                                                                
       852         0                                                                                
       855         0                                                                                
       856         0                                                                                
       859         0                                                                                
       860         0                                                                                
       863         0                                                                                
       864         0                                                                                
       867         0                                                                                
       868         0                                                                                
# ... 101 like lines cut
#---1----|----2----|----3----|----4----|----5----|----6----|----7----|----8----|----9----|---10----|
/TH/NODE/2
#thgroup_name
outputInterface_s2                                                                                   
#  var_ID1   var_ID2   var_ID3   var_ID4   var_ID5   var_ID6   var_ID7   var_ID8   var_ID9  var_ID10
        DX        DY        DZ       
#  node_ID   skew_ID                                         node_name
         1         0                                                                                
         2         0                                                                                
         3         0                                                                                
         4         0                                                                                
         5         0                                                                                
         6         0                                                                                
         7         0                                                                                
         8         0                                                                                
         9         0                                                                                
        10         0                                                                                
        11         0                                                                                
      2492         0                                                                                
      2494         0                                                                                
      2495         0                                                                                
      2497         0                                                                                
      2498         0                                                                                
      2500         0                                                                                
      2501         0                                                                                
      2503         0                                                                                
      2504         0                                                                                
# ... 101 like lines cut
##--------------------------------------------------------------------------------------------------
## End Of Radioss Block Deck
##--------------------------------------------------------------------------------------------------
/END