#RADIOSS STARTER
##========================================================================================
##
## Radioss Input Deck Generated by HyperMesh Version  : 2026.0.0.27
## Generated using HyperMesh-Radioss Template Version : 2026.0.0.27-290296
## Date: 03-24-2026   Time: 15:12:21
##
##========================================================================================
##
##
/BEGIN
#Runname                                                                        
solid-openradioss
#   Invers      Irun
      2024         0
#    Input_mass_unit   Input_length_unit     Input_time_unit
                  kg                   m                   s
#     Work_mass_unit    Work_length_unit      Work_time_unit
                  kg                   m                   s
##
#---1----|----2----|----3----|----4----|----5----|----6----|----7----|----8----|----9----|---10----|
/NODE
#  node_ID                  Xc                  Yc                  Zc
      3664                 7.4                 4.0                 0.0
      3665                 7.4               3.975                 0.0
      3666                 7.4                3.95                 0.0
      3667                 7.4               3.925                 0.0
      3668                 7.4                 3.9                 0.0
      3669                 7.4               3.875                 0.0
      3670                 7.4                3.85                 0.0
      3671                 7.4               3.825                 0.0
      3672                 7.4                 3.8                 0.0
      3673                 7.4               3.775                 0.0
      3674                 7.4                3.75                 0.0
      3675                 7.4               3.725                 0.0
      3676                 7.4                 3.7                 0.0
      3677                 7.4               3.675                 0.0
      3678                 7.4                3.65                 0.0
      3679                 7.4               3.625                 0.0
      3680                 7.4                 3.6                 0.0
      3681                 7.4               3.575                 0.0
      3682                 7.4                3.55                 0.0
      3683                 7.4               3.525                 0.0
# ... 30679 like lines cut
#---1----|----2----|----3----|----4----|----5----|----6----|----7----|----8----|----9----|---10----|
/BRIC20/1
#  bric_ID  node_ID1  node_ID2  node_ID3  node_ID4  node_ID5  node_ID6  node_ID7  node_ID8
# node_ID9 node_ID10 node_ID11 node_ID12 node_ID13 node_ID14 node_ID15 node_ID16
#node_ID17 node_ID18 node_ID19 node_ID20
       481      4106      3884      3883      4107      4308      4309      4310      4311
     13243     13238     13240     14080     14084     13244     13241     14087
     14773     14778     14783     14774
       482      4308      4309      4310      4311      4312      4313      4314      4315
     14773     14778     14783     14774     14775     14779     14785     14788
     14791     14796     14802     14792
       483      4312      4313      4314      4315      4316      4317      4318      4319
     14791     14796     14802     14792     14793     14797     14804     14808
     14811     14816     14822     14812
       484      4316      4317      4318      4319      4320      4321      4322      4323
     14811     14816     14822     14812     14813     14817     14824     14828
     14831     14836     14842     14832
       485      4320      4321      4322      4323      4324      4325      4326      4327
     14831     14836     14842     14832     14833     14837     14844     14848
     14851     14856     14862     14852
       486      4324      4325      4326      4327      4328      4329      4330      4331
     14851     14856     14862     14852     14853     14857     14864     14868
     14871     14876     14882     14872
       487      4328      4329      4330      4331      4332      4333      4334      4335
     14871     14876     14882     14872     14873     14877     14884     14888
# ... 17260 like lines cut
#---1----|----2----|----3----|----4----|----5----|----6----|----7----|----8----|----9----|---10----|
#-  1. PART:                                                                    
#---1----|----2----|----3----|----4----|----5----|----6----|----7----|----8----|----9----|---10----|
/PART/1
#part_title                                                                                         
flapPart                                                                                            
#  prop_ID    mat_ID                         Thick
         1         1                              
#---1----|----2----|----3----|----4----|----5----|----6----|----7----|----8----|----9----|---10----|
#-  2. MATERIAL DEFINITION:                                                                    
#---1----|----2----|----3----|----4----|----5----|----6----|----7----|----8----|----9----|---10----|
/MAT/OGDEN/1
flapMaterial                                                                                           
#              RHO_I
                1020
#                 Nu           sigma_cut           funIDbulk         Fscale_bulk         M    I_form
                0.49                   0                   0                   0         0         1  
#               Mu_1                Mu_2                Mu_3                Mu_4                Mu_5
           3616000.0          -3562000.0                   
#               Mu_6                Mu_7                Mu_8                Mu_9               Mu_10
                  
#            alpha_1             alpha_2             alpha_3             alpha_4             alpha_5
                   2                  -2                   
#            alpha_6             alpha_7             alpha_8             alpha_9            alpha_10
                   
#---1----|----2----|----3----|----4----|----5----|----6----|----7----|----8----|----9----|---10----|
#-  3. PROPERTIES DEFINITION:                                                                    
#---1----|----2----|----3----|----4----|----5----|----6----|----7----|----8----|----9----|---10----|
/PROP/SOLID/1
flapProperty                                                                                        
#   Isolid    Ismstr      Iale     Icpre  Itetra10     Inpts   Itetra4    Iframe                  Dn
        16         0         0         0         0         0         0         0                 0.0
#                 qa                  qb                   h              Lambda                  Mu
                 0.0                 0.0                 0.0                 0.0                 0.0
#         deltaT_min            Vdef_min            Vdef_max             ASP_max             COL_min
                 0.0                 0.0                 0.0                 0.0                 0.0
#---1----|----2----|----3----|----4----|----5----|----6----|----7----|----8----|----9----|---10----|
#-  4. BOUNDARY CONDITIONS:                                                                    
#---1----|----2----|----3----|----4----|----5----|----6----|----7----|----8----|----9----|---10----|
/BCS/1
fixedWallZ0                                                                                         
#  Tra rot   skew_ID  grnod_ID
   111 000         0         1
#---1----|----2----|----3----|----4----|----5----|----6----|----7----|----8----|----9----|---10----|
/GRNOD/NODE/1
#title                                                                                              
fixedEnd
# item_ID1  item_ID2  item_ID3  item_ID4  item_ID5  item_ID6  item_ID7  item_ID8  item_ID9 item_ID10
      3824      3825      3826      3827      7070      7071      7074      7075      7078      7079
      7082      7083      7086      7087      7090      7091      7094      7095      7098      7099
      7102      7103      7106      7107      7110      7111      7114      7115      8401      8403
      8405      8407      8409      8411      8413      8415      8417      8419      8421      8423
     12024     12025     12026     12027     12028     12029     12030     12031     12032     12033
     12034     12035     12999     13001     13002     13004     13005     13007     13011     26825
     26826     26828     26831     26832     26843     26844     26847     26850     26852     26863
     26864     26867     26870     26872     26883     26884     26887     26890     26892     26903
     26904     26907     26910     26912     26923     26924     26927     26930     26932     26943
     26944     26947     26950     26952     26963     26964     26967     26970     26972     26983
     26984     26987     26990     26992     27003     27004     27007     27010     27012     27023
     27024     27027     27030     27032     27045     27048     27051     32005     32013     32021
     32029     32037     32045     32053     32061     32069     32077     32085     42984     42985
     42986     42987     42988     42989     42990     42991     42992     42993     42994
#---1----|----2----|----3----|----4----|----5----|----6----|----7----|----8----|----9----|---10----|
#-  5. INTERFACES:                                                                    
#---1----|----2----|----3----|----4----|----5----|----6----|----7----|----8----|----9----|---10----|
/GRNOD/NODE/2
#title                                                                                              
interface
# item_ID1  item_ID2  item_ID3  item_ID4  item_ID5  item_ID6  item_ID7  item_ID8  item_ID9 item_ID10
      3664      3665      3666      3667      3668      3669      3670      3671      3672      3673
      3674      3675      3676      3677      3678      3679      3680      3681      3682      3683
      3684      3685      3686      3687      3688      3689      3690      3691      3692      3693
      3694      3695      3696      3697      3698      3699      3700      3701      3702      3703
      3704      3705      3706      3707      3708      3709      3710      3711      3712      3713
      3714      3715      3716      3717      3718      3719      3720      3721      3722      3723
      3724      3725      3726      3727      3728      3729      3730      3731      3732      3733
      3734      3735      3736      3737      3738      3739      3740      3741      3742      3743
      3744      3745      3746      3747      3748      3749      3750      3751      3752      3753
      3754      3755      3756      3757      3758      3759      3760      3761      3762      3763
      3764      3765      3766      3767      3768      3769      3770      3771      3772      3773
      3774      3775      3776      3777      3778      3779      3780      3781      3782      3783
      3784      3785      3786      3787      3788      3789      3790      3791      3792      3793
      3794      3795      3796      3797      3798      3799      3800      3801      3802      3803
      3804      3805      3806      3807      3808      3809      3810      3811      3812      3813
      3814      3815      3816      3817      3818      3819      3820      3821      3822      3823
      3824      3825      3826      3827      3828      3829      3830      3831      3832      3833
      3834      3835      3836      3837      3838      3839      3840      3841      3842      3843
      3844      3845      3846      3847      3848      3849      3850      3851      3852      3853
      3854      3855      3856      3857      3858      3859      3860      3861      3862      3863
# ... 346 like lines cut
##--------------------------------------------------------------------------------------------------
## End Of Radioss Block Deck
##--------------------------------------------------------------------------------------------------
/END
