#RADIOSS STARTER
##========================================================================================
##
## Radioss Input Deck Generated by HyperMesh Version  : 2026.0.0.27
## Generated using HyperMesh-Radioss Template Version : 2026.0.0.27-290296
## Date: 03-10-2026   Time: 15:21:38
##
##========================================================================================
##
##
/BEGIN
#Runname                                                                        
solid-openradioss
#   Invers      Irun
      2024         0
#    Input_mass_unit   Input_length_unit     Input_time_unit
                  kg                   m                   s
#     Work_mass_unit    Work_length_unit      Work_time_unit
                  kg                   m                   s
##
#---1----|----2----|----3----|----4----|----5----|----6----|----7----|----8----|----9----|---10----|
/NODE
#  node_ID                  Xc                  Yc                  Zc
      3016                7.45                 0.0                 0.0
      3017                7.45                 0.1                 0.0
      3018                7.45   0.200000000000001                 0.0
      3019                7.45   0.299999999999999                 0.0
      3020                7.45                 0.4                 0.0
      3021                7.45                 0.5                 0.0
      3022                7.45                 0.6                 0.0
      3023                7.45   0.700000000000001                 0.0
      3024                7.45   0.799999999999999                 0.0
      3025                7.45                 0.9                 0.0
      3026                7.45                 1.0                 0.0
      3027                7.45                 1.1                 0.0
      3028                7.45                 1.2                 0.0
      3029                7.45                 1.3                 0.0
      3030                7.45                 1.4                 0.0
      3031                7.45                 1.5                 0.0
      3032                7.45                 1.6                 0.0
      3033                7.45                 1.7                 0.0
      3034                7.45                 1.8                 0.0
      3035                7.45                 1.9                 0.0
# ... 2260 like lines cut
#---1----|----2----|----3----|----4----|----5----|----6----|----7----|----8----|----9----|---10----|
/BRIC20/1
#  bric_ID  node_ID1  node_ID2  node_ID3  node_ID4  node_ID5  node_ID6  node_ID7  node_ID8
# node_ID9 node_ID10 node_ID11 node_ID12 node_ID13 node_ID14 node_ID15 node_ID16
#node_ID17 node_ID18 node_ID19 node_ID20
       121      3104      3105      3129      3128      3180      3181      3182      3183
      4101      4110      4193      4104      4106      4111      4195      4194
      4359      4364      4368      4360
       122      3180      3181      3182      3183      3184      3185      3186      3187
      4359      4364      4368      4360      4361      4365      4369      4372
      4375      4380      4384      4376
       123      3184      3185      3186      3187      3188      3189      3190      3191
      4375      4380      4384      4376      4377      4381      4385      4388
      4391      4396      4400      4392
       124      3123      3122      3120      3121      3192      3193      3194      3195
      4168      4162      4161      4166      4170      4169      4164      4167
      4409      4413      4416      4410
       125      3192      3193      3194      3195      3196      3197      3198      3199
      4409      4413      4416      4410      4411      4414      4417      4420
      4423      4427      4430      4424
       126      3196      3197      3198      3199      3200      3201      3202      3203
      4423      4427      4430      4424      4425      4428      4431      4434
      4437      4441      4444      4438
       127      3057      3056      3055      3111      3204      3205      3206      3207
      3864      3860      3862      3867      3868      3865      3863      4136
# ... 1060 like lines cut
#---1----|----2----|----3----|----4----|----5----|----6----|----7----|----8----|----9----|---10----|
#-  1. PART:                                                                    
#---1----|----2----|----3----|----4----|----5----|----6----|----7----|----8----|----9----|---10----|
/PART/1
#part_title                                                                                         
beamPart                                                                                            
#  prop_ID    mat_ID                         Thick
         1         1                              
#---1----|----2----|----3----|----4----|----5----|----6----|----7----|----8----|----9----|---10----|
#-  2. MATERIAL DEFINITION:                                                                    
#---1----|----2----|----3----|----4----|----5----|----6----|----7----|----8----|----9----|---10----|
/MAT/OGDEN/1
flapMaterial                                                                                           
#              RHO_I
                1020
#                 Nu           sigma_cut           funIDbulk         Fscale_bulk         M    I_form
                0.49                   0                   0                   0         0         1  
#               Mu_1                Mu_2                Mu_3                Mu_4                Mu_5
           3616000.0          -3562000.0                   
#               Mu_6                Mu_7                Mu_8                Mu_9               Mu_10
                   
#            alpha_1             alpha_2             alpha_3             alpha_4             alpha_5
                   2                  -2                   
#            alpha_6             alpha_7             alpha_8             alpha_9            alpha_10
                   
#---1----|----2----|----3----|----4----|----5----|----6----|----7----|----8----|----9----|---10----|
#-  3. PROPERTIES DEFINITION:                                                                    
#---1----|----2----|----3----|----4----|----5----|----6----|----7----|----8----|----9----|---10----|
/PROP/SOLID/1
beamProperty                                                                                        
#   Isolid    Ismstr      Iale     Icpre  Itetra10     Inpts   Itetra4    Iframe                  Dn
        16         0         0         0         0         0         0         0                 0.0
#                 qa                  qb                   h              Lambda                  Mu
                 0.0                 0.0                 0.0                 0.0                 0.0
#         deltaT_min            Vdef_min            Vdef_max             ASP_max             COL_min
                 0.0                 0.0                 0.0                 0.0                 0.0
#---1----|----2----|----3----|----4----|----5----|----6----|----7----|----8----|----9----|---10----|
#-  4. BOUNDARY CONDITIONS:                                                                    
#---1----|----2----|----3----|----4----|----5----|----6----|----7----|----8----|----9----|---10----|
/BCS/1
fixedWallZ0                                                                                         
#  Tra rot   skew_ID  grnod_ID
   111 000         0         1
#---1----|----2----|----3----|----4----|----5----|----6----|----7----|----8----|----9----|---10----|
/GRNOD/NODE/1
#title                                                                                              
fixedEnd                                                                                              
# item_ID1  item_ID2  item_ID3  item_ID4  item_ID5  item_ID6  item_ID7  item_ID8  item_ID9 item_ID10
      3016      3099      3100      3101      3359      3360      3363      3364      3367      3368
      3526      3528      3530      3633      3634      3635      3673      3675      4080      4082
      4083      4086      4089      5089      5090      5092      5095      5096      5107      5108
      5111      5114      5116      5128      5131      5134      5657      5665      5943      5944
#---1----|----2----|----3----|----4----|----5----|----6----|----7----|----8----|----9----|---10----|
/GRNOD/NODE/2
#title                                                                                              
interface                                                                                           
# item_ID1  item_ID2  item_ID3  item_ID4  item_ID5  item_ID6  item_ID7  item_ID8  item_ID9 item_ID10
      3016      3017      3018      3019      3020      3021      3022      3023      3024      3025
      3026      3027      3028      3029      3030      3031      3032      3033      3034      3035
      3036      3037      3038      3039      3040      3041      3042      3043      3044      3045
      3046      3047      3048      3049      3050      3051      3052      3053      3054      3055
      3056      3057      3058      3059      3060      3061      3062      3063      3064      3065
      3066      3067      3068      3069      3070      3071      3072      3073      3074      3075
      3076      3077      3078      3079      3080      3081      3082      3083      3084      3085
      3086      3087      3088      3089      3090      3091      3092      3093      3094      3095
      3096      3097      3098      3099      3100      3101      3102      3103      3104      3105
      3106      3107      3108      3109      3110      3111      3112      3113      3114      3115
      3116      3117      3118      3119      3120      3121      3122      3123      3124      3125
      3126      3127      3128      3129      3130      3131      3132      3133      3134      3135
      3136      3137      3138      3139      3140      3141      3142      3143      3144      3145
      3146      3147      3148      3149      3150      3151      3152      3153      3154      3155
      3156      3157      3158      3159      3160      3161      3162      3163      3164      3165
      3166      3167      3168      3169      3170      3171      3172      3173      3174      3175
      3176      3177      3178      3179      3188      3189      3190      3191      3200      3201
      3202      3203      3204      3205      3208      3209      3212      3213      3214      3215
      3224      3225      3226      3227      3236      3237      3238      3239      3248      3249
      3250      3251      3260      3261      3262      3263      3270      3271      3272      3275
# ... 72 like lines cut
##--------------------------------------------------------------------------------------------------
## End Of Radioss Block Deck
##--------------------------------------------------------------------------------------------------
/END