#RADIOSS STARTER
##========================================================================================
##
## Radioss Input Deck Generated by HyperMesh Version  : 2026.0.0.27
## Generated using HyperMesh-Radioss Template Version : 2026.0.0.27-290296
## Date: 02-17-2026   Time: 10:13:47
##
##========================================================================================
##
##
/BEGIN
#Runname                                                                        
solid-openradioss                                                               
#   Invers      Irun
      2024         0
#    Input_mass_unit   Input_length_unit     Input_time_unit
                  kg                   m                   s
#     Work_mass_unit    Work_length_unit      Work_time_unit
                  kg                   m                   s
##
#---1----|----2----|----3----|----4----|----5----|----6----|----7----|----8----|----9----|---10----|
/NODE
#  node_ID                  Xc                  Yc                  Zc
       664               -0.05-6.1232339957368E-18                 0.0
       665  -0.016666666666667-4.0821559971578E-18                 0.0
       666   0.016666666666667-2.0410779985789E-18                 0.0
       667                0.05                 0.0                 0.0
       668                0.05                 0.0   0.333333333333333
       669                0.05                 0.0   0.666666666666667
       670                0.05                 0.0                 1.0
       671   0.016666666666667-2.0410779985789E-18                 1.0
       672  -0.016666666666667-4.0821559971578E-18                 1.0
       673               -0.05-6.1232339957368E-18                 1.0
       674               -0.05-6.1232339957368E-18   0.666666666666667
       675               -0.05-6.1232339957368E-18   0.333333333333333
       676   0.016666666666667-2.0410779985789E-18   0.333333333333333
       677  -0.016666666666667-4.0821559971578E-18   0.333333333333333
       678   0.016666666666667-2.0410779985789E-18   0.666666666666667
       679  -0.016666666666667-4.0821559971578E-18   0.666666666666667
       680  -0.016666666666667   0.066666666666667                 1.0
       681  -0.016666666666667   0.066666666666667   0.666666666666667
       682               -0.05   0.066666666666667   0.666666666666667
       683               -0.05   0.066666666666667                 1.0
# ... 236 like lines cut
#---1----|----2----|----3----|----4----|----5----|----6----|----7----|----8----|----9----|---10----|
/BRICK/1
# brick_ID  node_ID1  node_ID2  node_ID3  node_ID4  node_ID5  node_ID6  node_ID7  node_ID8
        10       672       679       674       673       680       681       682       683
        11       680       681       682       683       684       685       686       687
        12       684       685       686       687       688       689       690       691
        13       688       689       690       691       692       693       694       695
        14       692       693       694       695       696       697       698       699
        15       696       697       698       699       700       701       702       703
        16       700       701       702       703       704       705       706       707
        17       704       705       706       707       708       709       710       711
        18       708       709       710       711       712       713       714       715
        19       712       713       714       715       716       717       718       719
        20       716       717       718       719       720       721       722       723
        21       720       721       722       723       724       725       726       727
        22       724       725       726       727       728       729       730       731
        23       728       729       730       731       732       733       734       735
        24       732       733       734       735       736       737       738       739
        25       677       665       664       675       740       741       742       743
        26       740       741       742       743       744       745       746       747
        27       744       745       746       747       748       749       750       751
        28       748       749       750       751       752       753       754       755
        29       752       753       754       755       756       757       758       759
# ... 115 like lines cut
#---1----|----2----|----3----|----4----|----5----|----6----|----7----|----8----|----9----|---10----|
#-  1. PART:                                                                    
#---1----|----2----|----3----|----4----|----5----|----6----|----7----|----8----|----9----|---10----|
/PART/1
#part_title                                                                                         
beamPart                                                                                            
#  prop_ID    mat_ID                         Thick
         1         1                              
#---1----|----2----|----3----|----4----|----5----|----6----|----7----|----8----|----9----|---10----|
#-  2. MATERIAL DEFINITION:                                                                    
#---1----|----2----|----3----|----4----|----5----|----6----|----7----|----8----|----9----|---10----|
/MAT/ELAST/1
beamMaterial                                                                                        
#              RHO_I
              3000.0
#                  E                  nu
           4000000.0                 0.3
#---1----|----2----|----3----|----4----|----5----|----6----|----7----|----8----|----9----|---10----|
#-  3. PROPERTIES DEFINITION:                                                                    
#---1----|----2----|----3----|----4----|----5----|----6----|----7----|----8----|----9----|---10----|
/PROP/SOLID/1
beamProperty                                                                                        
#   Isolid    Ismstr      Iale     Icpre  Itetra10     Inpts   Itetra4    Iframe                  Dn
         1         0         0         0         0         0         0         0                 0.0
#                 qa                  qb                   h              Lambda                  Mu
                 0.0                 0.0                 0.0                 0.0                 0.0
#         deltaT_min            Vdef_min            Vdef_max             ASP_max             COL_min
                 0.0                 0.0                 0.0                 0.0                 0.0
#---1----|----2----|----3----|----4----|----5----|----6----|----7----|----8----|----9----|---10----|
#-  4. BOUNDARY CONDITIONS:                                                                    
#---1----|----2----|----3----|----4----|----5----|----6----|----7----|----8----|----9----|---10----|
/BCS/1
fixedWallZ0                                                                                         
#  Tra rot   skew_ID  grnod_ID
   111 000         0         1
#---1----|----2----|----3----|----4----|----5----|----6----|----7----|----8----|----9----|---10----|
/GRNOD/NODE/1
#title                                                                                              
fixedEnd                                                                                            
# item_ID1  item_ID2  item_ID3  item_ID4  item_ID5  item_ID6  item_ID7  item_ID8  item_ID9 item_ID10
       664       665       666       667       668       669       670       671       672       673
       674       675       676       677       678       679
#---1----|----2----|----3----|----4----|----5----|----6----|----7----|----8----|----9----|---10----|
#-  5. INTERFACES:                                                                    
#---1----|----2----|----3----|----4----|----5----|----6----|----7----|----8----|----9----|---10----|
/GRNOD/NODE/2
#title                                                                                              
interface                                                                                           
# item_ID1  item_ID2  item_ID3  item_ID4  item_ID5  item_ID6  item_ID7  item_ID8  item_ID9 item_ID10
       664       667       668       669       670       673       674       675       682       683
       686       687       690       691       694       695       698       699       702       703
       706       707       710       711       714       715       718       719       722       723
       726       727       730       731       734       735       736       737       738       739
       742       743       746       747       750       751       754       755       758       759
       762       763       766       767       770       771       774       775       778       779
       782       783       786       787       790       791       794       795       796       797
       798       799       800       801       804       805       808       809       812       813
       816       817       820       821       824       825       828       829       832       833
       836       837       840       841       844       845       848       849       852       853
       856       857       858       859       874       875       876       878       879       881
       882       884       885       887       888       890       891       893       894       896
       897       899       900       902       903       905       906       908       909       911
       912       914       915       917       918       919
##--------------------------------------------------------------------------------------------------
## End Of Radioss Block Deck
##--------------------------------------------------------------------------------------------------
/END