#RADIOSS STARTER
##========================================================================================
##
## Radioss Input Deck Generated by HyperMesh Version  : 2026.0.0.27
## Generated using HyperMesh-Radioss Template Version : 2026.0.0.27-290296
## Date: 02-11-2026   Time: 10:11:24
##
##========================================================================================
##
##
/BEGIN
#Runname                                                                        
solid-openradioss                                                               
#   Invers      Irun
      2024         0
#    Input_mass_unit   Input_length_unit     Input_time_unit
                  kg                   m                   s
#     Work_mass_unit    Work_length_unit      Work_time_unit
                  kg                   m                   s
##
#---1----|----2----|----3----|----4----|----5----|----6----|----7----|----8----|----9----|---10----|
/NODE
#  node_ID                  Xc                  Yc                  Zc
       715               -0.05-6.1232339957368E-18                 0.0
       716              -0.025-4.5924254968026E-18                 0.0
       717                 0.0-3.0616169978684E-18                 0.0
       718               0.025-1.5308084989342E-18                 0.0
       719                0.05                 0.0                 0.0
       720                0.05                 0.0                 0.1
       721                0.05                 0.0                 0.2
       722                0.05                 0.0                 0.3
       723                0.05                 0.0                 0.4
       724                0.05                 0.0                 0.5
       725                0.05                 0.0                 0.6
       726                0.05                 0.0                 0.7
       727                0.05                 0.0                 0.8
       728                0.05                 0.0                 0.9
       729                0.05                 0.0                 1.0
       730               0.025-1.5308084989342E-18                 1.0
       731                 0.0-3.0616169978684E-18                 1.0
       732              -0.025-4.5924254968026E-18                 1.0
       733               -0.05-6.1232339957368E-18                 1.0
       734               -0.05-6.1232339957368E-18                 0.9
# ... 970 like lines cut
#---1----|----2----|----3----|----4----|----5----|----6----|----7----|----8----|----9----|---10----|
/BRICK/1
# brick_ID  node_ID1  node_ID2  node_ID3  node_ID4  node_ID5  node_ID6  node_ID7  node_ID8
        41       761       743       744       762       770       771       772       773
        42       770       771       772       773       774       775       776       777
        43       774       775       776       777       778       779       780       781
        44       778       779       780       781       782       783       784       785
        45       782       783       784       785       786       787       788       789
        46       786       787       788       789       790       791       792       793
        47       790       791       792       793       794       795       796       797
        48       794       795       796       797       798       799       800       801
        49       798       799       800       801       802       803       804       805
        50       802       803       804       805       806       807       808       809
        51       806       807       808       809       810       811       812       813
        52       810       811       812       813       814       815       816       817
        53       814       815       816       817       818       819       820       821
        54       818       819       820       821       822       823       824       825
        55       822       823       824       825       826       827       828       829
        56       826       827       828       829       830       831       832       833
        57       830       831       832       833       834       835       836       837
        58       726       725       761       758       838       839       770       840
        59       838       839       770       840       841       842       774       843
        60       841       842       774       843       844       845       778       846
# ... 660 like lines cut
#---1----|----2----|----3----|----4----|----5----|----6----|----7----|----8----|----9----|---10----|
#-  1. PART:                                                                    
#---1----|----2----|----3----|----4----|----5----|----6----|----7----|----8----|----9----|---10----|
/PART/1
#part_title                                                                                         
beamPart                                                                                            
#  prop_ID    mat_ID                         Thick
         1         1                              
#---1----|----2----|----3----|----4----|----5----|----6----|----7----|----8----|----9----|---10----|
#-  2. MATERIAL DEFINITION:                                                                    
#---1----|----2----|----3----|----4----|----5----|----6----|----7----|----8----|----9----|---10----|
/MAT/ELAST/1
beamMaterial                                                                                        
#              RHO_I
              3000.0
#                  E                  nu
           4000000.0                 0.3
#---1----|----2----|----3----|----4----|----5----|----6----|----7----|----8----|----9----|---10----|
#-  3. PROPERTIES DEFINITION:                                                                    
#---1----|----2----|----3----|----4----|----5----|----6----|----7----|----8----|----9----|---10----|
/PROP/SOLID/1
beamProperty                                                                                        
#   Isolid    Ismstr      Iale     Icpre  Itetra10     Inpts   Itetra4    Iframe                  Dn
         1         0         0         0         0         0         0         0                 0.0
#                 qa                  qb                   h              Lambda                  Mu
                 0.0                 0.0                 0.0                 0.0                 0.0
#         deltaT_min            Vdef_min            Vdef_max             ASP_max             COL_min
                 0.0                 0.0                 0.0                 0.0                 0.0
#---1----|----2----|----3----|----4----|----5----|----6----|----7----|----8----|----9----|---10----|
#-  4. BOUNDARY CONDITIONS:                                                                    
#---1----|----2----|----3----|----4----|----5----|----6----|----7----|----8----|----9----|---10----|
/BCS/1
fixedWallZ0                                                                                         
#  Tra rot   skew_ID  grnod_ID
   111 000         0         1
#---1----|----2----|----3----|----4----|----5----|----6----|----7----|----8----|----9----|---10----|
/GRNOD/NODE/1
#title                                                                                              
fixedEnd                                                                                            
# item_ID1  item_ID2  item_ID3  item_ID4  item_ID5  item_ID6  item_ID7  item_ID8  item_ID9 item_ID10
       715       716       717       718       719       720       721       722       723       724
       725       726       727       728       729       730       731       732       733       734
       735       736       737       738       739       740       741       742       743       744
       745       746       747       748       749       750       751       752       753       754
       755       756       757       758       759       760       761       762       763       764
       765       766       767       768       769
#---1----|----2----|----3----|----4----|----5----|----6----|----7----|----8----|----9----|---10----|
#-  5. INTERFACES:                                                                    
#---1----|----2----|----3----|----4----|----5----|----6----|----7----|----8----|----9----|---10----|
/GRNOD/NODE/2
#title                                                                                              
interface                                                                                           
# item_ID1  item_ID2  item_ID3  item_ID4  item_ID5  item_ID6  item_ID7  item_ID8  item_ID9 item_ID10
       715       719       720       721       722       723       724       725       726       727
       728       729       733       734       735       736       737       738       739       740
       741       742       834       835       836       837       838       839       841       842
       844       845       847       848       850       851       853       854       856       857
       859       860       862       863       865       866       868       869       871       872
       874       875       877       878       880       881       883       884       886       887
       888       891       892       895       896       899       900       903       904       907
       908       911       912       915       916       919       920       923       924       927
       928       931       932       935       936       939       940       943       944       947
       948       951       952       953       954       955       956      1021      1022      1023
      1024      1057      1058      1061      1062      1065      1066      1069      1070      1073
      1074      1077      1078      1081      1082      1085      1086      1089      1090      1093
      1094      1097      1098      1101      1102      1105      1106      1109      1110      1113
      1114      1117      1118      1121      1122      1123      1124      1125      1126      1191
      1192      1193      1194      1197      1198      1201      1202      1205      1206      1209
      1210      1213      1214      1217      1218      1221      1222      1225      1226      1229
      1230      1233      1234      1237      1238      1241      1242      1245      1246      1249
      1250      1253      1254      1257      1258      1259      1260      1261      1262      1264
      1265      1267      1268      1270      1271      1273      1274      1276      1277      1279
      1280      1282      1283      1285      1286      1288      1289      1291      1292      1294
# ... 23 like lines cut
#---1----|----2----|----3----|----4----|----5----|----6----|----7----|----8----|----9----|---10----|
#-  6. TIME HISTORIES:                                                                    
#---1----|----2----|----3----|----4----|----5----|----6----|----7----|----8----|----9----|---10----|
/TH/NODE/1
#thgroup_name
outputInterface                                                                                     
#  var_ID1   var_ID2   var_ID3   var_ID4   var_ID5   var_ID6   var_ID7   var_ID8   var_ID9  var_ID10
        DX        DY        DZ     REACX     REACY     REACZ       
#  node_ID   skew_ID                                         node_name
       715         0                                                                                
       719         0                                                                                
       720         0                                                                                
       721         0                                                                                
       722         0                                                                                
       723         0                                                                                
       724         0                                                                                
       725         0                                                                                
       726         0                                                                                
       727         0                                                                                
       728         0                                                                                
       729         0                                                                                
       733         0                                                                                
       734         0                                                                                
       735         0                                                                                
       736         0                                                                                
       737         0                                                                                
       738         0                                                                                
       739         0                                                                                
       740         0                                                                                
# ... 409 like lines cut
##--------------------------------------------------------------------------------------------------
## End Of Radioss Block Deck
##--------------------------------------------------------------------------------------------------
/END/