#RADIOSS STARTER
##========================================================================================
##
## Radioss Input Deck Generated by HyperMesh Version  : 2026.0.0.27
## Generated using HyperMesh-Radioss Template Version : 2026.0.0.27-290296
## Date: 02-20-2026   Time: 18:09:38
##
##========================================================================================
##
##
/BEGIN
#Runname                                                                        
solid-openradioss                                                               
#   Invers      Irun
      2024         0
#    Input_mass_unit   Input_length_unit     Input_time_unit
                  kg                   m                   s
#     Work_mass_unit    Work_length_unit      Work_time_unit
                  kg                   m                   s
##
#---1----|----2----|----3----|----4----|----5----|----6----|----7----|----8----|----9----|---10----|
/NODE
#  node_ID                  Xc                  Yc                  Zc
       511               -0.05-6.1232339957368E-18                 0.0
       512  -0.016666666666667-4.0821559971578E-18                 0.0
       513   0.016666666666667-2.0410779985789E-18                 0.0
       514                0.05                 0.0                 0.0
       515                0.05                 0.0                 0.2
       516                0.05                 0.0                 0.4
       517                0.05                 0.0                 0.6
       518                0.05                 0.0                 0.8
       519                0.05                 0.0                 1.0
       520   0.016666666666667-2.0410779985789E-18                 1.0
       521  -0.016666666666667-4.0821559971578E-18                 1.0
       522               -0.05-6.1232339957368E-18                 1.0
       523               -0.05-6.1232339957368E-18                 0.8
       524               -0.05-6.1232339957368E-18                 0.6
       525               -0.05-6.1232339957368E-18                 0.4
       526               -0.05-6.1232339957368E-18                 0.2
       527   0.016666666666667-2.0410779985789E-18                 0.4
       528  -0.016666666666667-4.0821559971578E-18                 0.4
       529   0.016666666666667-2.0410779985789E-18                 0.2
       530  -0.016666666666667-4.0821559971578E-18                 0.2
# ... 1332 like lines cut
#---1----|----2----|----3----|----4----|----5----|----6----|----7----|----8----|----9----|---10----|
/BRIC20/1
#  bric_ID  node_ID1  node_ID2  node_ID3  node_ID4  node_ID5  node_ID6  node_ID7  node_ID8
# node_ID9 node_ID10 node_ID11 node_ID12 node_ID13 node_ID14 node_ID15 node_ID16
#node_ID17 node_ID18 node_ID19 node_ID20
        16       529       513       512       530       535       536       537       538
       904       899       901       968       969       905       902       970
       981       986       991       982
        17       535       536       537       538       539       540       541       542
       981       986       991       982       983       987       993       996
       999      1004      1010      1000
        18       539       540       541       542       543       544       545       546
       999      1004      1010      1000      1001      1005      1012      1016
      1019      1024      1030      1020
        19       543       544       545       546       547       548       549       550
      1019      1024      1030      1020      1021      1025      1032      1036
      1039      1044      1050      1040
        20       547       548       549       550       551       552       553       554
      1039      1044      1050      1040      1041      1045      1052      1056
      1059      1064      1070      1060
        21       551       552       553       554       555       556       557       558
      1059      1064      1070      1060      1061      1065      1072      1076
      1079      1084      1090      1080
        22       555       556       557       558       559       560       561       562
      1079      1084      1090      1080      1081      1085      1092      1096
# ... 655 like lines cut
#---1----|----2----|----3----|----4----|----5----|----6----|----7----|----8----|----9----|---10----|
#-  1. PART:                                                                    
#---1----|----2----|----3----|----4----|----5----|----6----|----7----|----8----|----9----|---10----|
/PART/1
#part_title                                                                                         
beamPart                                                                                            
#  prop_ID    mat_ID                         Thick
         1         1                              
#---1----|----2----|----3----|----4----|----5----|----6----|----7----|----8----|----9----|---10----|
#-  2. MATERIAL DEFINITION:                                                                    
#---1----|----2----|----3----|----4----|----5----|----6----|----7----|----8----|----9----|---10----|
/MAT/ELAST/1
beamMaterial                                                                                        
#              RHO_I
              3000.0
#                  E                  nu
           4000000.0                 0.3
#---1----|----2----|----3----|----4----|----5----|----6----|----7----|----8----|----9----|---10----|
#-  3. PROPERTIES DEFINITION:                                                                    
#---1----|----2----|----3----|----4----|----5----|----6----|----7----|----8----|----9----|---10----|
/PROP/SOLID/1
beamProperty                                                                                        
#   Isolid    Ismstr      Iale     Icpre  Itetra10     Inpts   Itetra4    Iframe                  Dn
        16         0         0         0         0         0         0         0                 0.0
#                 qa                  qb                   h              Lambda                  Mu
                 0.0                 0.0                 0.0                 0.0                 0.0
#         deltaT_min            Vdef_min            Vdef_max             ASP_max             COL_min
                 0.0                 0.0                 0.0                 0.0                 0.0
#---1----|----2----|----3----|----4----|----5----|----6----|----7----|----8----|----9----|---10----|
#-  4. BOUNDARY CONDITIONS:                                                                    
#---1----|----2----|----3----|----4----|----5----|----6----|----7----|----8----|----9----|---10----|
/BCS/1
fixedWallZ0                                                                                         
#  Tra rot   skew_ID  grnod_ID
   111 000         0         1
#---1----|----2----|----3----|----4----|----5----|----6----|----7----|----8----|----9----|---10----|
/GRNOD/NODE/1
#title                                                                                              
fixedEnd                                                                                            
# item_ID1  item_ID2  item_ID3  item_ID4  item_ID5  item_ID6  item_ID7  item_ID8  item_ID9 item_ID10
       511       512       513       514       515       516       517       518       519       520
       521       522       523       524       525       526       527       528       529       530
       531       532       533       534       895       896       899       901       903       904
       907       910       911       913       914       917       919       922       924       927
       930       931       935       937       941       944       945       947       948       950
       951       955       957       958       960       964       966       968       971       972
       976       978
#---1----|----2----|----3----|----4----|----5----|----6----|----7----|----8----|----9----|---10----|
#-  5. INTERFACES:                                                                    
#---1----|----2----|----3----|----4----|----5----|----6----|----7----|----8----|----9----|---10----|
/GRNOD/NODE/2
#title                                                                                              
interface                                                                                           
# item_ID1  item_ID2  item_ID3  item_ID4  item_ID5  item_ID6  item_ID7  item_ID8  item_ID9 item_ID10
       511       514       515       516       517       518       519       522       523       524
       525       526       591       592       593       594       595       596       599       600
       603       604       607       608       611       612       615       616       619       620
       623       624       627       628       631       632       635       636       639       640
       643       644       647       648       651       652       653       654       683       684
       685       686       687       688       689       690       691       692       693       694
       695       696       697       698       699       700       701       702       703       704
       705       706       707       708       709       710       711       712       713       714
       715       716       717       718       719       720       721       722       723       724
       725       726       727       728       729       730       731       732       733       734
       735       736       737       738       739       740       741       742       743       744
       759       760       761       762       763       764       765       766       767       768
       769       770       771       772       773       774       789       818       819       820
       821       822       823       824       825       826       827       828       829       830
       831       832       833       834       835       836       837       838       839       840
       841       842       843       844       845       846       847       848       849       850
       851       852       853       854       855       856       857       858       859       860
       861       862       863       864       865       866       867       868       869       870
       871       872       873       874       875       876       877       878       879       880
       881       882       883       884       885       886       887       888       889       890
# ... 38 like lines cut
#---1----|----2----|----3----|----4----|----5----|----6----|----7----|----8----|----9----|---10----|##--------------------------------------------------------------------------------------------------
## End Of Radioss Block Deck
##--------------------------------------------------------------------------------------------------
/END