#RADIOSS STARTER
##========================================================================================
##
## Radioss Input Deck Generated by HyperMesh Version  : 2025.0.0.24
## Generated using HyperMesh-Radioss Template Version : 2025.0.0.24-168648
## Date: 01-28-2026   Time: 16:36:53
##
##========================================================================================
##
##
/BEGIN
#Runname                                                                        
solid-openradioss                                                               
#   Invers      Irun
      2024         0
#    Input_mass_unit   Input_length_unit     Input_time_unit
                  kg                   m                   s
#     Work_mass_unit    Work_length_unit      Work_time_unit
                  kg                   m                   s
##
#---1----|----2----|----3----|----4----|----5----|----6----|----7----|----8----|----9----|---10----|
/NODE
#  node_ID                  Xc                  Yc                  Zc
      1409               -0.05-6.1232339957368E-18                 0.0
      1410              -0.025-4.5924254968026E-18                 0.0
      1411                 0.0-3.0616169978684E-18                 0.0
      1412               0.025-1.5308084989342E-18                 0.0
      1413                0.05                 0.0                 0.0
      1414                0.05                 0.0                 0.1
      1415                0.05                 0.0                 0.2
      1416                0.05                 0.0                 0.3
      1417                0.05                 0.0                 0.4
      1418                0.05                 0.0                 0.5
      1419                0.05                 0.0                 0.6
      1420                0.05                 0.0                 0.7
      1421                0.05                 0.0                 0.8
      1422                0.05                 0.0                 0.9
      1423                0.05                 0.0                 1.0
      1424               0.025-1.5308084989342E-18                 1.0
      1425                 0.0-3.0616169978684E-18                 1.0
      1426              -0.025-4.5924254968026E-18                 1.0
      1427               -0.05-6.1232339957368E-18                 1.0
      1428               -0.05-6.1232339957368E-18                 0.9
# ... 970 like lines cut
#---1----|----2----|----3----|----4----|----5----|----6----|----7----|----8----|----9----|---10----|
/BRICK/1
# brick_ID  node_ID1  node_ID2  node_ID3  node_ID4  node_ID5  node_ID6  node_ID7  node_ID8
        41      1426      1463      1428      1427      1464      1465      1466      1467
        42      1464      1465      1466      1467      1468      1469      1470      1471
        43      1468      1469      1470      1471      1472      1473      1474      1475
        44      1472      1473      1474      1475      1476      1477      1478      1479
        45      1476      1477      1478      1479      1480      1481      1482      1483
        46      1480      1481      1482      1483      1484      1485      1486      1487
        47      1484      1485      1486      1487      1488      1489      1490      1491
        48      1488      1489      1490      1491      1492      1493      1494      1495
        49      1492      1493      1494      1495      1496      1497      1498      1499
        50      1496      1497      1498      1499      1500      1501      1502      1503
        51      1500      1501      1502      1503      1504      1505      1506      1507
        52      1504      1505      1506      1507      1508      1509      1510      1511
        53      1508      1509      1510      1511      1512      1513      1514      1515
        54      1512      1513      1514      1515      1516      1517      1518      1519
        55      1516      1517      1518      1519      1520      1521      1522      1523
        56      1520      1521      1522      1523      1524      1525      1526      1527
        57      1524      1525      1526      1527      1528      1529      1530      1531
        58      1448      1442      1435      1434      1532      1533      1534      1535
        59      1532      1533      1534      1535      1536      1537      1538      1539
        60      1536      1537      1538      1539      1540      1541      1542      1543
# ... 660 like lines cut
#---1----|----2----|----3----|----4----|----5----|----6----|----7----|----8----|----9----|---10----|
#-  1. PART:                                                                    
#---1----|----2----|----3----|----4----|----5----|----6----|----7----|----8----|----9----|---10----|
/PART/1
#part_title                                                                                         
beamPart                                                                                            
#  prop_ID    mat_ID                         Thick
         1         1                              
#---1----|----2----|----3----|----4----|----5----|----6----|----7----|----8----|----9----|---10----|
#-  2. MATERIAL DEFINITION:                                                                    
#---1----|----2----|----3----|----4----|----5----|----6----|----7----|----8----|----9----|---10----|
/MAT/ELAST/1
beamMaterial                                                                                        
#              RHO_I
              7800.0
#                  E                  nu
      210000000000.0                 0.3
#---1----|----2----|----3----|----4----|----5----|----6----|----7----|----8----|----9----|---10----|
#-  3. PROPERTIES DEFINITION:                                                                    
#---1----|----2----|----3----|----4----|----5----|----6----|----7----|----8----|----9----|---10----|
/PROP/SOLID/1
beamProperty                                                                                        
#   Isolid    Ismstr      Iale     Icpre  Itetra10     Inpts   Itetra4    Iframe                  Dn
         1         0         0         0         0         0         0         0                 0.0
#                 qa                  qb                   h              Lambda                  Mu
                 0.0                 0.0                 0.0                 0.0                 0.0
#         deltaT_min            Vdef_min            Vdef_max             ASP_max             COL_min
                 0.0                 0.0                 0.0                 0.0                 0.0
#---1----|----2----|----3----|----4----|----5----|----6----|----7----|----8----|----9----|---10----|
#-  4. BOUNDARY CONDITIONS:                                                                    
#---1----|----2----|----3----|----4----|----5----|----6----|----7----|----8----|----9----|---10----|
/BCS/1
fixedWallZ0                                                                                         
#  Tra rot   skew_ID  grnod_ID
   111 000         0         1
#---1----|----2----|----3----|----4----|----5----|----6----|----7----|----8----|----9----|---10----|
/GRNOD/NODE/1
#title                                                                                              
fixedEnd                                                                                            
# item_ID1  item_ID2  item_ID3  item_ID4  item_ID5  item_ID6  item_ID7  item_ID8  item_ID9 item_ID10
      1409      1410      1411      1412      1413      1414      1415      1416      1417      1418
      1419      1420      1421      1422      1423      1424      1425      1426      1427      1428
      1429      1430      1431      1432      1433      1434      1435      1436      1437      1438
      1439      1440      1441      1442      1443      1444      1445      1446      1447      1448
      1449      1450      1451      1452      1453      1454      1455      1456      1457      1458
      1459      1460      1461      1462      1463
#---1----|----2----|----3----|----4----|----5----|----6----|----7----|----8----|----9----|---10----|
#-  5. INTERFACES:                                                                    
#---1----|----2----|----3----|----4----|----5----|----6----|----7----|----8----|----9----|---10----|
/GRNOD/NODE/2
#title                                                                                              
interface                                                                                           
# item_ID1  item_ID2  item_ID3  item_ID4  item_ID5  item_ID6  item_ID7  item_ID8  item_ID9 item_ID10
      1409      1413      1414      1415      1416      1417      1418      1419      1420      1421
      1422      1423      1427      1428      1429      1430      1431      1432      1433      1434
      1435      1436      1466      1467      1470      1471      1474      1475      1478      1479
      1482      1483      1486      1487      1490      1491      1494      1495      1498      1499
      1502      1503      1506      1507      1510      1511      1514      1515      1518      1519
      1522      1523      1526      1527      1528      1529      1530      1531      1534      1535
      1538      1539      1542      1543      1546      1547      1550      1551      1554      1555
      1558      1559      1562      1563      1566      1567      1570      1571      1574      1575
      1578      1579      1582      1583      1586      1587      1590      1591      1594      1595
      1596      1597      1598      1599      1600      1601      1604      1605      1608      1609
      1612      1613      1616      1617      1620      1621      1624      1625      1628      1629
      1632      1633      1636      1637      1640      1641      1644      1645      1648      1649
      1652      1653      1656      1657      1660      1661      1664      1665      1666      1667
      1732      1733      1734      1735      1736      1737      1740      1741      1744      1745
      1748      1749      1752      1753      1756      1757      1760      1761      1764      1765
      1768      1769      1772      1773      1776      1777      1780      1781      1784      1785
      1788      1789      1792      1793      1796      1797      1800      1801      1802      1803
      1836      1837      1840      1841      1844      1845      1848      1849      1852      1853
      1856      1857      1860      1861      1864      1865      1868      1869      1872      1873
      1876      1877      1880      1881      1884      1885      1888      1889      1892      1893
# ... 23 like lines cut
##--------------------------------------------------------------------------------------------------
## End Of Radioss Block Deck
##--------------------------------------------------------------------------------------------------
/END