#RADIOSS STARTER
##========================================================================================
##
## Radioss Input Deck Generated by HyperMesh Version  : 2026.0.0.27
## Generated using HyperMesh-Radioss Template Version : 2026.0.0.27-290296
## Date: 03-09-2026   Time: 15:30:47
##
##========================================================================================
##
##
/BEGIN
#Runname                                                                        
solid-openradioss                                                               
#   Invers      Irun
      2026         0
#    Input_mass_unit   Input_length_unit     Input_time_unit
                  kg                   m                   s
#     Work_mass_unit    Work_length_unit      Work_time_unit
                  kg                   m                   s
##
#---1----|----2----|----3----|----4----|----5----|----6----|----7----|----8----|----9----|---10----|
/NODE
#  node_ID                  Xc                  Yc                  Zc
      3820                 7.4                 4.0                 0.0
      3821                 7.4                 3.9                 0.0
      3822                 7.4                 3.8                 0.0
      3823                 7.4                 3.7                 0.0
      3824                 7.4                 3.6                 0.0
      3825                 7.4                 3.5                 0.0
      3826                 7.4                 3.4                 0.0
      3827                 7.4                 3.3                 0.0
      3828                 7.4                 3.2                 0.0
      3829                 7.4                 3.1                 0.0
      3830                 7.4                 3.0                 0.0
      3831                 7.4                 2.9                 0.0
      3832                 7.4                 2.8                 0.0
      3833                 7.4                 2.7                 0.0
      3834                 7.4                 2.6                 0.0
      3835                 7.4                 2.5                 0.0
      3836                 7.4                 2.4                 0.0
      3837                 7.4                 2.3                 0.0
      3838                 7.4                 2.2                 0.0
      3839                 7.4                 2.1                 0.0
# ... 2260 like lines cut
#---1----|----2----|----3----|----4----|----5----|----6----|----7----|----8----|----9----|---10----|
/BRIC20/1
#  bric_ID  node_ID1  node_ID2  node_ID3  node_ID4  node_ID5  node_ID6  node_ID7  node_ID8
# node_ID9 node_ID10 node_ID11 node_ID12 node_ID13 node_ID14 node_ID15 node_ID16
#node_ID17 node_ID18 node_ID19 node_ID20
       121      3979      3824      3823      3977      3984      3985      3986      3987
      4493      4487      4488      5150      5156      4494      4490      5153
      5167      5172      5177      5168
       122      3984      3985      3986      3987      3988      3989      3990      3991
      5167      5172      5177      5168      5169      5173      5179      5182
      5185      5190      5196      5186
       123      3988      3989      3990      3991      3992      3993      3994      3995
      5185      5190      5196      5186      5187      5191      5198      5202
      5205      5211      5215      5206
       124      3945      3944      3942      3943      3996      3997      3998      3999
      5035      5029      5028      5033      5037      5036      5031      5034
      5224      5229      5233      5225
       125      3996      3997      3998      3999      4000      4001      4002      4003
      5224      5229      5233      5225      5226      5230      5234      5237
      5240      5245      5249      5241
       126      4000      4001      4002      4003      4004      4005      4006      4007
      5240      5245      5249      5241      5242      5246      5250      5253
      5256      5262      5266      5257
       127      3959      3833      3832      3963      4008      4009      4010      4011
      4534      4530      4531      5093      5094      4536      4532      5104
# ... 1060 like lines cut
#---1----|----2----|----3----|----4----|----5----|----6----|----7----|----8----|----9----|---10----|
#-  1. PART:                                                                    
#---1----|----2----|----3----|----4----|----5----|----6----|----7----|----8----|----9----|---10----|
/PART/1
#part_title                                                                                         
beamPart                                                                                            
#  prop_ID    mat_ID                         Thick
         1         1                              
#---1----|----2----|----3----|----4----|----5----|----6----|----7----|----8----|----9----|---10----|
#-  2. MATERIAL DEFINITION:                                                                    
#---1----|----2----|----3----|----4----|----5----|----6----|----7----|----8----|----9----|---10----|
/MAT/ELAST/1
beamMaterial                                                                                        
#              RHO_I
              2700.0
#                  E                  nu
       70000000000.0                 0.3
#---1----|----2----|----3----|----4----|----5----|----6----|----7----|----8----|----9----|---10----|
#-  3. PROPERTIES DEFINITION:                                                                    
#---1----|----2----|----3----|----4----|----5----|----6----|----7----|----8----|----9----|---10----|
/PROP/SOLID/1
beamProperty                                                                                        
#   Isolid    Ismstr      Iale     Icpre  Itetra10     Inpts   Itetra4    Iframe                  Dn
        16         0         0         0         0         0         0         0                 0.0
#                 qa                  qb                   h              Lambda                  Mu
                 0.0                 0.0                 0.0                 0.0                 0.0
#         deltaT_min            Vdef_min            Vdef_max             ASP_max             COL_min
                 0.0                 0.0                 0.0                 0.0                 0.0
#---1----|----2----|----3----|----4----|----5----|----6----|----7----|----8----|----9----|---10----|
#-  4. BOUNDARY CONDITIONS:                                                                    
#---1----|----2----|----3----|----4----|----5----|----6----|----7----|----8----|----9----|---10----|
/BCS/1
fixedWallZ0                                                                                         
#  Tra rot   skew_ID  grnod_ID
   111 000         0         1
#---1----|----2----|----3----|----4----|----5----|----6----|----7----|----8----|----9----|---10----|
/GRNOD/NODE/1
#title                                                                                              
fixedEnd                                                                                              
# item_ID1  item_ID2  item_ID3  item_ID4  item_ID5  item_ID6  item_ID7  item_ID8  item_ID9 item_ID10
      3860      3861      3862      3863      4422      4423      4424      4425      4426      4427
      4437      4438      4439      4440      4441      4442      4667      4669      4670      4672
      4674      4677      4679      6701      6702      6704      6707      6708      6709      6712
      6715      6716      6718      6729      6730      6733      6734      6735      6738      6739
#---1----|----2----|----3----|----4----|----5----|----6----|----7----|----8----|----9----|---10----|
/GRNOD/NODE/2
#title                                                                                              
interface                                                                                              
# item_ID1  item_ID2  item_ID3  item_ID4  item_ID5  item_ID6  item_ID7  item_ID8  item_ID9 item_ID10
      3820      3821      3822      3823      3824      3825      3826      3827      3828      3829
      3830      3831      3832      3833      3834      3835      3836      3837      3838      3839
      3840      3841      3842      3843      3844      3845      3846      3847      3848      3849
      3850      3851      3852      3853      3854      3855      3856      3857      3858      3859
      3860      3861      3862      3863      3864      3865      3866      3867      3868      3869
      3870      3871      3872      3873      3874      3875      3876      3877      3878      3879
      3880      3881      3882      3883      3884      3885      3886      3887      3888      3889
      3890      3891      3892      3893      3894      3895      3896      3897      3898      3899
      3900      3901      3902      3903      3904      3905      3906      3907      3908      3909
      3910      3911      3912      3913      3914      3915      3916      3917      3918      3919
      3920      3921      3922      3923      3924      3925      3926      3927      3928      3929
      3930      3931      3932      3933      3934      3935      3936      3937      3938      3939
      3940      3941      3942      3943      3944      3945      3946      3947      3948      3949
      3950      3951      3952      3953      3954      3955      3956      3957      3958      3959
      3960      3961      3962      3963      3964      3965      3966      3967      3968      3969
      3970      3971      3972      3973      3974      3975      3976      3977      3978      3979
      3980      3981      3982      3983      3992      3993      3994      3995      4004      4005
      4006      4007      4016      4017      4018      4019      4028      4029      4030      4031
      4040      4041      4042      4043      4052      4053      4054      4055      4064      4065
      4066      4067      4076      4077      4078      4079      4086      4087      4088      4091
# ... 72 like lines cut
##--------------------------------------------------------------------------------------------------
## End Of Radioss Block Deck
##--------------------------------------------------------------------------------------------------
/END