#RADIOSS STARTER
##========================================================================================
##
## Radioss Input Deck Generated by HyperMesh Version  : 2026.0.0.27
## Generated using HyperMesh-Radioss Template Version : 2026.0.0.27-290296
## Date: 04-01-2026   Time: 20:44:06
##
##========================================================================================
##
##
/BEGIN
#Runname                                                                        
beam-right-tutorial                                                             
#   Invers      Irun
      2024         0
#    Input_mass_unit   Input_length_unit     Input_time_unit
                  kg                   m                   s
#     Work_mass_unit    Work_length_unit      Work_time_unit
                  kg                   m                   s
##
#---1----|----2----|----3----|----4----|----5----|----6----|----7----|----8----|----9----|---10----|
/NODE
#  node_ID                  Xc                  Yc                  Zc
     16255                 0.0                 0.0                 0.0
     16256                 0.5                 0.0                 0.0
     16257                 1.0                 0.0                 0.0
     16258                 1.0                 0.0                 1.0
     16259                 1.0                 0.0                 2.0
     16260                 1.0                 0.0                 3.0
     16261                 1.0                 0.0                 4.0
     16262                 1.0                 0.0                 5.0
     16263                 1.0                 0.0                 6.0
     16264                 0.5                 0.0                 6.0
     16265                 0.0                 0.0                 6.0
     16266                 0.0                 0.0                 5.0
     16267                 0.0                 0.0                 4.0
     16268                 0.0                 0.0                 3.0
     16269                 0.0                 0.0                 2.0
     16270                 0.0                 0.0                 1.0
     16271                 0.5                 0.0                 3.0
     16272                 0.5                 0.0                 1.0
     16273                 0.5                 0.0                 2.0
     16274                 0.5                 0.0                 4.0
# ... 181 like lines cut
#---1----|----2----|----3----|----4----|----5----|----6----|----7----|----8----|----9----|---10----|
/BRIC20/1
#  bric_ID  node_ID1  node_ID2  node_ID3  node_ID4  node_ID5  node_ID6  node_ID7  node_ID8
# node_ID9 node_ID10 node_ID11 node_ID12 node_ID13 node_ID14 node_ID15 node_ID16
#node_ID17 node_ID18 node_ID19 node_ID20
        13     16272     16256     16255     16270     16276     16277     16278     16279
     16325     16318     16319     16379     16386     16326     16321     16381
     16391     16396     16401     16392
        14     16276     16277     16278     16279     16280     16281     16282     16283
     16391     16396     16401     16392     16393     16397     16403     16406
     16409     16415     16419     16410
        15     16273     16272     16270     16269     16284     16276     16279     16285
     16385     16379     16375     16377     16387     16386     16381     16378
     16394     16392     16407     16423
        16     16284     16276     16279     16285     16286     16280     16283     16287
     16394     16392     16407     16423     16424     16393     16406     16427
     16411     16410     16422     16430
        17     16261     16260     16271     16274     16288     16289     16290     16291
     16339     16340     16383     16345     16347     16342     16384     16389
     16438     16444     16449     16439
        18     16288     16289     16290     16291     16292     16293     16294     16295
     16438     16444     16449     16439     16440     16446     16450     16452
     16455     16460     16463     16456
        19     16274     16271     16268     16267     16291     16290     16296     16297
     16383     16372     16368     16369     16389     16384     16374     16370
# ... 52 like lines cut
#---1----|----2----|----3----|----4----|----5----|----6----|----7----|----8----|----9----|---10----|
#-  1. PART:                                                                    
#---1----|----2----|----3----|----4----|----5----|----6----|----7----|----8----|----9----|---10----|
/PART/1
#part_title                                                                                         
beamPart                                                                                            
#  prop_ID    mat_ID                         Thick
         1         1                              
#---1----|----2----|----3----|----4----|----5----|----6----|----7----|----8----|----9----|---10----|
#-  2. MATERIAL DEFINITION:                                                                    
#---1----|----2----|----3----|----4----|----5----|----6----|----7----|----8----|----9----|---10----|
/MAT/ELAST/1
beamMaterial                                                                                        
#              RHO_I
              7800.0
#                  E                  nu
      210000000000.0                 0.3
#---1----|----2----|----3----|----4----|----5----|----6----|----7----|----8----|----9----|---10----|
#-  3. PROPERTIES DEFINITION:                                                                    
#---1----|----2----|----3----|----4----|----5----|----6----|----7----|----8----|----9----|---10----|
/PROP/SOLID/1
beamProperty                                                                                        
#   Isolid    Ismstr      Iale     Icpre  Itetra10     Inpts   Itetra4    Iframe                  Dn
        24         0         0         0         0         0         0         0                 0.0
#                 qa                  qb                   h              Lambda                  Mu
                 0.0                 0.0                 0.0                 0.0                 0.0
#         deltaT_min            Vdef_min            Vdef_max             ASP_max             COL_min
                 0.0                 0.0                 0.0                 0.0                 0.0
#---1----|----2----|----3----|----4----|----5----|----6----|----7----|----8----|----9----|---10----|
#-  4. BOUNDARY CONDITIONS:                                                                    
#---1----|----2----|----3----|----4----|----5----|----6----|----7----|----8----|----9----|---10----|
/BCS/1
fixedWallZ0                                                                                         
#  Tra rot   skew_ID  grnod_ID
   111 000         0         1
#---1----|----2----|----3----|----4----|----5----|----6----|----7----|----8----|----9----|---10----|
/GRNOD/NODE/1
#title                                                                                              
Z0                                                                                                  
# item_ID1  item_ID2  item_ID3  item_ID4  item_ID5  item_ID6  item_ID7  item_ID8  item_ID9 item_ID10
     16255     16256     16257     16277     16278     16281     16282     16316     16317     16318
     16321     16323     16326     16330     16396     16397     16399     16403     16415     16418
     16523
#---1----|----2----|----3----|----4----|----5----|----6----|----7----|----8----|----9----|---10----|
#-  5. INTERFACE:                                                                    
#---1----|----2----|----3----|----4----|----5----|----6----|----7----|----8----|----9----|---10----|
/GRNOD/NODE/2
#title                                                                                              
Z_Interface_s1                                                                                      
# item_ID1  item_ID2  item_ID3  item_ID4  item_ID5  item_ID6  item_ID7  item_ID8  item_ID9 item_ID10                                                                                
     16263     16264     16265     16308     16310     16311     16313     16314     16315     16355
     16357     16358     16360     16364     16506     16507     16509     16516     16518     16520
     16522
##--------------------------------------------------------------------------------------------------
## End Of Radioss Block Deck
##--------------------------------------------------------------------------------------------------
/END