#RADIOSS STARTER
##========================================================================================
##
## Radioss Input Deck Generated by HyperMesh Version  : 2026.0.0.27
## Generated using HyperMesh-Radioss Template Version : 2026.0.0.27-290296
## Date: 03-14-2026   Time: 12:08:59
##
##========================================================================================
##
##
/BEGIN
#Runname                                                                        
solid-openradioss
#   Invers      Irun
      2024         0
#    Input_mass_unit   Input_length_unit     Input_time_unit
                  kg                   m                   s
#     Work_mass_unit    Work_length_unit      Work_time_unit
                  kg                   m                   s
##
#---1----|----2----|----3----|----4----|----5----|----6----|----7----|----8----|----9----|---10----|
/NODE
#  node_ID                  Xc                  Yc                  Zc
      3016                 7.4                 4.0                 0.0
      3017                 7.4                 3.9                 0.0
      3018                 7.4                 3.8                 0.0
      3019                 7.4                 3.7                 0.0
      3020                 7.4                 3.6                 0.0
      3021                 7.4                 3.5                 0.0
      3022                 7.4                 3.4                 0.0
      3023                 7.4                 3.3                 0.0
      3024                 7.4                 3.2                 0.0
      3025                 7.4                 3.1                 0.0
      3026                 7.4                 3.0                 0.0
      3027                 7.4                 2.9                 0.0
      3028                 7.4                 2.8                 0.0
      3029                 7.4                 2.7                 0.0
      3030                 7.4                 2.6                 0.0
      3031                 7.4                 2.5                 0.0
      3032                 7.4                 2.4                 0.0
      3033                 7.4                 2.3                 0.0
      3034                 7.4                 2.2                 0.0
      3035                 7.4                 2.1                 0.0
# ... 2260 like lines cut
#---1----|----2----|----3----|----4----|----5----|----6----|----7----|----8----|----9----|---10----|
/BRIC20/1
#  bric_ID  node_ID1  node_ID2  node_ID3  node_ID4  node_ID5  node_ID6  node_ID7  node_ID8
# node_ID9 node_ID10 node_ID11 node_ID12 node_ID13 node_ID14 node_ID15 node_ID16
#node_ID17 node_ID18 node_ID19 node_ID20
       121      3129      3128      3104      3105      3180      3181      3182      3183
      4179      4090      4087      4096      4181      4180      4092      4097
      4345      4350      4354      4346
       122      3180      3181      3182      3183      3184      3185      3186      3187
      4345      4350      4354      4346      4347      4351      4355      4358
      4361      4366      4370      4362
       123      3184      3185      3186      3187      3188      3189      3190      3191
      4361      4366      4370      4362      4363      4367      4371      4374
      4377      4383      4389      4378
       124      3123      3122      3120      3121      3192      3193      3194      3195
      4154      4148      4147      4152      4156      4155      4150      4153
      4397      4401      4404      4398
       125      3192      3193      3194      3195      3196      3197      3198      3199
      4397      4401      4404      4398      4399      4402      4405      4408
      4411      4415      4418      4412
       126      3196      3197      3198      3199      3200      3201      3202      3203
      4411      4415      4418      4412      4413      4416      4419      4422
      4425      4429      4432      4426
       127      3057      3056      3055      3111      3204      3205      3206      3207
      3854      3850      3852      3857      3858      3855      3853      4122
# ... 1060 like lines cut
#---1----|----2----|----3----|----4----|----5----|----6----|----7----|----8----|----9----|---10----|
#-  1. PART:                                                                    
#---1----|----2----|----3----|----4----|----5----|----6----|----7----|----8----|----9----|---10----|
/PART/1
#part_title                                                                                         
flapPart                                                                                            
#  prop_ID    mat_ID                         Thick
         1         1                              
#---1----|----2----|----3----|----4----|----5----|----6----|----7----|----8----|----9----|---10----|
#-  2. MATERIAL DEFINITION:                                                                    
#---1----|----2----|----3----|----4----|----5----|----6----|----7----|----8----|----9----|---10----|
/MAT/OGDEN/1
flapMaterial                                                                                           
#              RHO_I
                1020
#                 Nu           sigma_cut           funIDbulk         Fscale_bulk         M    I_form
                0.49                   0                   0                   0         0         1  
#               Mu_1                Mu_2                Mu_3                Mu_4                Mu_5
           3616000.0          -3562000.0                   
#               Mu_6                Mu_7                Mu_8                Mu_9               Mu_10
                  
#            alpha_1             alpha_2             alpha_3             alpha_4             alpha_5
                   2                  -2                   
#            alpha_6             alpha_7             alpha_8             alpha_9            alpha_10
                   
#---1----|----2----|----3----|----4----|----5----|----6----|----7----|----8----|----9----|---10----|
#-  3. PROPERTIES DEFINITION:                                                                    
#---1----|----2----|----3----|----4----|----5----|----6----|----7----|----8----|----9----|---10----|
/PROP/SOLID/1
flapProperty                                                                                        
#   Isolid    Ismstr      Iale     Icpre  Itetra10     Inpts   Itetra4    Iframe                  Dn
        16         0         0         0         0         0         0         0                 0.0
#                 qa                  qb                   h              Lambda                  Mu
                 0.0                 0.0                 0.0                 0.0                 0.0
#         deltaT_min            Vdef_min            Vdef_max             ASP_max             COL_min
                 0.0                 0.0                 0.0                 0.0                 0.0
#---1----|----2----|----3----|----4----|----5----|----6----|----7----|----8----|----9----|---10----|
#-  4. BOUNDARY CONDITIONS:                                                                    
#---1----|----2----|----3----|----4----|----5----|----6----|----7----|----8----|----9----|---10----|
/BCS/1
fixedWallZ0                                                                                         
#  Tra rot   skew_ID  grnod_ID
   111 000         0         1
#---1----|----2----|----3----|----4----|----5----|----6----|----7----|----8----|----9----|---10----|
/GRNOD/NODE/1
#title                                                                                              
fixedEnd                                                                                            
# item_ID1  item_ID2  item_ID3  item_ID4  item_ID5  item_ID6  item_ID7  item_ID8  item_ID9 item_ID10
      3056      3057      3058      3059      3204      3205      3208      3209      3212      3213
      3564      3565      3567      3568      3570      3571      3854      3855      3856      3858
      3860      3863      3865      4440      4442      4444      4448      4458      4460      4463
      4467      4478      4481      5757      5759      5763      5768      5770      5774      5780
#---1----|----2----|----3----|----4----|----5----|----6----|----7----|----8----|----9----|---10----|
#-  5. INTERFACES:                                                                    
#---1----|----2----|----3----|----4----|----5----|----6----|----7----|----8----|----9----|---10----|
/GRNOD/NODE/2
#title                                                                                              
interface                                                                                           
# item_ID1  item_ID2  item_ID3  item_ID4  item_ID5  item_ID6  item_ID7  item_ID8  item_ID9 item_ID10
      3016      3017      3018      3019      3020      3021      3022      3023      3024      3025
      3026      3027      3028      3029      3030      3031      3032      3033      3034      3035
      3036      3037      3038      3039      3040      3041      3042      3043      3044      3045
      3046      3047      3048      3049      3050      3051      3052      3053      3054      3055
      3056      3057      3058      3059      3060      3061      3062      3063      3064      3065
      3066      3067      3068      3069      3070      3071      3072      3073      3074      3075
      3076      3077      3078      3079      3080      3081      3082      3083      3084      3085
      3086      3087      3088      3089      3090      3091      3092      3093      3094      3095
      3096      3097      3098      3099      3100      3101      3102      3103      3104      3105
      3106      3107      3108      3109      3110      3111      3112      3113      3114      3115
      3116      3117      3118      3119      3120      3121      3122      3123      3124      3125
      3126      3127      3128      3129      3130      3131      3132      3133      3134      3135
      3136      3137      3138      3139      3140      3141      3142      3143      3144      3145
      3146      3147      3148      3149      3150      3151      3152      3153      3154      3155
      3156      3157      3158      3159      3160      3161      3162      3163      3164      3165
      3166      3167      3168      3169      3170      3171      3172      3173      3174      3175
      3176      3177      3178      3179      3188      3189      3190      3191      3200      3201
      3202      3203      3212      3213      3214      3215      3224      3225      3226      3227
      3236      3237      3238      3239      3248      3249      3250      3251      3260      3261
      3262      3263      3270      3271      3272      3275      3284      3285      3286      3287
# ... 72 like lines cut
##--------------------------------------------------------------------------------------------------
## End Of Radioss Block Deck
##--------------------------------------------------------------------------------------------------
/END