#RADIOSS STARTER
##========================================================================================
##
## Radioss Input Deck Generated by HyperMesh Version  : 2026.0.0.27
## Generated using HyperMesh-Radioss Template Version : 2026.0.0.27-290296
## Date: 02-12-2026   Time: 23:51:51
##
##========================================================================================
##
##
/BEGIN
#Runname                                                                        
solid-openradioss                                                               
#   Invers      Irun
      2024         0
#    Input_mass_unit   Input_length_unit     Input_time_unit
                  kg                   m                   s
#     Work_mass_unit    Work_length_unit      Work_time_unit
                  kg                   m                   s
##
#---1----|----2----|----3----|----4----|----5----|----6----|----7----|----8----|----9----|---10----|
/NODE
#  node_ID                  Xc                  Yc                  Zc
       715               -0.05-6.1232339957368E-18                 0.0
       716  -0.016666666666667-4.0821559971578E-18                 0.0
       717   0.016666666666667-2.0410779985789E-18                 0.0
       718                0.05                 0.0                 0.0
       719                0.05                 0.0                 0.2
       720                0.05                 0.0                 0.4
       721                0.05                 0.0                 0.6
       722                0.05                 0.0                 0.8
       723                0.05                 0.0                 1.0
       724   0.016666666666667-2.0410779985789E-18                 1.0
       725  -0.016666666666667-4.0821559971578E-18                 1.0
       726               -0.05-6.1232339957368E-18                 1.0
       727               -0.05-6.1232339957368E-18                 0.8
       728               -0.05-6.1232339957368E-18                 0.6
       729               -0.05-6.1232339957368E-18                 0.4
       730               -0.05-6.1232339957368E-18                 0.2
       731   0.016666666666667-2.0410779985789E-18                 0.4
       732  -0.016666666666667-4.0821559971578E-18                 0.4
       733   0.016666666666667-2.0410779985789E-18                 0.2
       734  -0.016666666666667-4.0821559971578E-18                 0.2
# ... 364 like lines cut
#---1----|----2----|----3----|----4----|----5----|----6----|----7----|----8----|----9----|---10----|
/BRICK/1
# brick_ID  node_ID1  node_ID2  node_ID3  node_ID4  node_ID5  node_ID6  node_ID7  node_ID8
        16       725       738       727       726       739       740       741       742
        17       739       740       741       742       743       744       745       746
        18       743       744       745       746       747       748       749       750
        19       747       748       749       750       751       752       753       754
        20       751       752       753       754       755       756       757       758
        21       755       756       757       758       759       760       761       762
        22       759       760       761       762       763       764       765       766
        23       763       764       765       766       767       768       769       770
        24       767       768       769       770       771       772       773       774
        25       771       772       773       774       775       776       777       778
        26       775       776       777       778       779       780       781       782
        27       779       780       781       782       783       784       785       786
        28       783       784       785       786       787       788       789       790
        29       787       788       789       790       791       792       793       794
        30       791       792       793       794       795       796       797       798
        31       734       716       715       730       799       800       801       802
        32       799       800       801       802       803       804       805       806
        33       803       804       805       806       807       808       809       810
        34       807       808       809       810       811       812       813       814
        35       811       812       813       814       815       816       817       818
# ... 205 like lines cut
#---1----|----2----|----3----|----4----|----5----|----6----|----7----|----8----|----9----|---10----|
#-  1. PART:                                                                    
#---1----|----2----|----3----|----4----|----5----|----6----|----7----|----8----|----9----|---10----|
/PART/1
#part_title                                                                                         
beamPart                                                                                            
#  prop_ID    mat_ID                         Thick
         1         1                              
#---1----|----2----|----3----|----4----|----5----|----6----|----7----|----8----|----9----|---10----|
#-  2. MATERIAL DEFINITION:                                                                    
#---1----|----2----|----3----|----4----|----5----|----6----|----7----|----8----|----9----|---10----|
/MAT/ELAST/1
beamMaterial                                                                                        
#              RHO_I
              3000.0
#                  E                  nu
           4000000.0                 0.3
#---1----|----2----|----3----|----4----|----5----|----6----|----7----|----8----|----9----|---10----|
#-  3. PROPERTIES DEFINITION:                                                                    
#---1----|----2----|----3----|----4----|----5----|----6----|----7----|----8----|----9----|---10----|
/PROP/SOLID/1
beamProperty                                                                                        
#   Isolid    Ismstr      Iale     Icpre  Itetra10     Inpts   Itetra4    Iframe                  Dn
         1         0         0         0         0         0         0         0                 0.0
#                 qa                  qb                   h              Lambda                  Mu
                 0.0                 0.0                 0.0                 0.0                 0.0
#         deltaT_min            Vdef_min            Vdef_max             ASP_max             COL_min
                 0.0                 0.0                 0.0                 0.0                 0.0
#---1----|----2----|----3----|----4----|----5----|----6----|----7----|----8----|----9----|---10----|
#-  4. BOUNDARY CONDITIONS:                                                                    
#---1----|----2----|----3----|----4----|----5----|----6----|----7----|----8----|----9----|---10----|
/BCS/1
fixedWallZ0                                                                                         
#  Tra rot   skew_ID  grnod_ID
   111 000         0         1
#---1----|----2----|----3----|----4----|----5----|----6----|----7----|----8----|----9----|---10----|
/GRNOD/NODE/1
#title                                                                                              
fixedEnd                                                                                            
# item_ID1  item_ID2  item_ID3  item_ID4  item_ID5  item_ID6  item_ID7  item_ID8  item_ID9 item_ID10
       715       716       717       718       719       720       721       722       723       724
       725       726       727       728       729       730       731       732       733       734
       735       736       737       738
#---1----|----2----|----3----|----4----|----5----|----6----|----7----|----8----|----9----|---10----|
#-  5. INTERFACES:                                                                    
#---1----|----2----|----3----|----4----|----5----|----6----|----7----|----8----|----9----|---10----|
/GRNOD/NODE/2
#title                                                                                              
interface                                                                                           
# item_ID1  item_ID2  item_ID3  item_ID4  item_ID5  item_ID6  item_ID7  item_ID8  item_ID9 item_ID10
       715       718       719       720       721       722       723       726       727       728
       729       730       741       742       745       746       749       750       753       754
       757       758       761       762       765       766       769       770       773       774
       777       778       781       782       785       786       789       790       793       794
       795       796       797       798       801       802       805       806       809       810
       813       814       817       818       821       822       825       826       829       830
       833       834       837       838       841       842       845       846       849       850
       853       854       855       856       857       858       901       902       903       932
       933       934       935       936       937       938       939       940       941       942
       943       944       945       946       947       948       949       950       951       952
       953       954       955       956       957       958       959       960       961       962
       963       964       965       968       969       972       973       976       977       980
       981       984       985       988       989       992       993       996       997      1000
      1001      1004      1005      1008      1009      1012      1013      1016      1017      1020
      1021      1022      1023      1024      1025      1026      1027      1028      1029      1030
      1031      1032      1033      1034      1035      1036      1037      1038      1039      1040
      1041      1042      1043      1044      1045      1046      1047      1048      1049      1050
      1051      1052      1053      1054      1055      1057      1058      1060      1061      1063
      1064      1066      1067      1069      1070      1072      1073      1075      1076      1078
      1079      1081      1082      1084      1085      1087      1088      1090      1091      1093
      1094      1096      1097      1098
##--------------------------------------------------------------------------------------------------
## End Of Radioss Block Deck
##--------------------------------------------------------------------------------------------------
/END