#RADIOSS STARTER
##========================================================================================
##
## Radioss Input Deck Generated by HyperMesh Version  : 2025.0.0.24
## Generated using HyperMesh-Radioss Template Version : 2025.0.0.24-168648
## Date: 01-19-2026   Time: 14:03:32
##
##========================================================================================
##
##
/BEGIN
#Runname                                                                        
monolithic-beam                                                          
#   Invers      Irun
      2024         0
#    Input_mass_unit   Input_length_unit     Input_time_unit
                  kg                   m                   s
#     Work_mass_unit    Work_length_unit      Work_time_unit
                  kg                   m                   s
##
#---1----|----2----|----3----|----4----|----5----|----6----|----7----|----8----|----9----|---10----|
/NODE
#  node_ID                  Xc                  Yc                  Zc
         1                 0.0                 0.0                 0.0
         2                0.05                 0.0                 0.0
         3                 0.1                 0.0                 0.0
         4                0.15                 0.0                 0.0
         5                 0.2                 0.0                 0.0
         6                0.25                 0.0                 0.0
         7                 0.3                 0.0                 0.0
         8                0.35                 0.0                 0.0
         9                 0.4                 0.0                 0.0
        10                0.45                 0.0                 0.0
        11                 0.5                 0.0                 0.0
        12                 0.5                 0.0                0.05
        13                 0.5                 0.0                 0.1
        14                 0.5                 0.0                0.15
        15                 0.5                 0.0                 0.2
        16                 0.5                 0.0                0.25
        17                 0.5                 0.0                 0.3
        18                 0.5                 0.0                0.35
        19                 0.5                 0.0                 0.4
        20                 0.5                 0.0                0.45
# ... 19461 like lines cut
#---1----|----2----|----3----|----4----|----5----|----6----|----7----|----8----|----9----|---10----|
/BRICK/1
# brick_ID  node_ID1  node_ID2  node_ID3  node_ID4  node_ID5  node_ID6  node_ID7  node_ID8
      1601      1490      1489      1492      1494      1772      1773      1774      1775
      1602      1772      1773      1774      1775      1776      1777      1778      1779
      1603      1776      1777      1778      1779      1780      1781      1782      1783
      1604      1780      1781      1782      1783      1784      1785      1786      1787
      1605      1784      1785      1786      1787      1788      1789      1790      1791
      1606      1788      1789      1790      1791      1792      1793      1794      1795
      1607      1792      1793      1794      1795      1796      1797      1798      1799
      1608      1796      1797      1798      1799      1800      1801      1802      1803
      1609      1800      1801      1802      1803      1804      1805      1806      1807
      1610      1804      1805      1806      1807      1808      1809      1810      1811
      1611       992      1023      1024       991      1812      1813      1814      1815
      1612      1812      1813      1814      1815      1816      1817      1818      1819
      1613      1816      1817      1818      1819      1820      1821      1822      1823
      1614      1820      1821      1822      1823      1824      1825      1826      1827
      1615      1824      1825      1826      1827      1828      1829      1830      1831
      1616      1828      1829      1830      1831      1832      1833      1834      1835
      1617      1832      1833      1834      1835      1836      1837      1838      1839
      1618      1836      1837      1838      1839      1840      1841      1842      1843
      1619      1840      1841      1842      1843      1844      1845      1846      1847
      1620      1844      1845      1846      1847      1848      1849      1850      1851
# ... 15980 like lines cut
#---1----|----2----|----3----|----4----|----5----|----6----|----7----|----8----|----9----|---10----|
#-  1. PART:                                                                    
#---1----|----2----|----3----|----4----|----5----|----6----|----7----|----8----|----9----|---10----|
/PART/1
#part_title                                                                                         
beamPart                                                                                            
#  prop_ID    mat_ID                         Thick
         1         1                              
#---1----|----2----|----3----|----4----|----5----|----6----|----7----|----8----|----9----|---10----|
#-  2. MATERIAL DEFINITION:                                                                    
#---1----|----2----|----3----|----4----|----5----|----6----|----7----|----8----|----9----|---10----|
/MAT/ELAST/1
beamMaterial                                                                                        
#              RHO_I
              7800.0
#                  E                  nu
      210000000000.0                 0.3
#---1----|----2----|----3----|----4----|----5----|----6----|----7----|----8----|----9----|---10----|
#-  3. PROPERTIES DEFINITION:                                                                    
#---1----|----2----|----3----|----4----|----5----|----6----|----7----|----8----|----9----|---10----|
/PROP/SOLID/1
beamProperty                                                                                        
#   Isolid    Ismstr      Iale     Icpre  Itetra10     Inpts   Itetra4    Iframe                  Dn
        24         0         0         0         0         0         0         0                 0.0
#                 qa                  qb                   h              Lambda                  Mu
                 0.0                 0.0                 0.0                 0.0                 0.0
#         deltaT_min            Vdef_min            Vdef_max             ASP_max             COL_min
                 0.0                 0.0                 0.0                 0.0                 0.0
#---1----|----2----|----3----|----4----|----5----|----6----|----7----|----8----|----9----|---10----|
#-  4. BOUNDARY CONDITIONS:                                                                    
#---1----|----2----|----3----|----4----|----5----|----6----|----7----|----8----|----9----|---10----|
/BCS/1
fixedWallZ0                                                                                         
#  Tra rot   skew_ID  grnod_ID
   111 000         0         1
#---1----|----2----|----3----|----4----|----5----|----6----|----7----|----8----|----9----|---10----|
/GRNOD/NODE/1
#title                                                                                              
Z0                                                                                                  
# item_ID1  item_ID2  item_ID3  item_ID4  item_ID5  item_ID6  item_ID7  item_ID8  item_ID9 item_ID10
         1         2         3         4         5         6         7         8         9        10
        11      8362      8363      8365      8366      8368      8369      8371      8372      8374
      8375      8377      8378      8380      8381      8383      8384      8386      8387      8389
      8390     12923     12924     12927     12928     12931     12932     12935     12936     12939
     12940     12943     12944     12947     12948     12951     12952     12955     12956     12959
     12960     16563     16564     16566     16567     16569     16570     16572     16573     16575
     16576     16578     16579     16581     16582     16584     16585     16587     16588     16590
     16591     16883     16885     16887     16889     16891     16893     16895     16897     16899
     16901     18083     18085     18087     18089     18091     18093     18095     18097     18099
     18101     19232     19233     19234     19235     19236     19237     19238     19239     19240
     19241     19372     19373     19374     19375     19376     19377     19378     19379     19380
     19381     19402     19403     19404     19405     19406     19407     19408     19409     19410
     19411
#---1----|----2----|----3----|----4----|----5----|----6----|----7----|----8----|----9----|---10----|
/BCS/2
fixedWallZ8                                                                                        
#  Tra rot   skew_ID  grnod_ID
   111 000         0         2
#---1----|----2----|----3----|----4----|----5----|----6----|----7----|----8----|----9----|---10----|
/GRNOD/NODE/2
#title                                                                                              
Z8                                                                                                  
# item_ID1  item_ID2  item_ID3  item_ID4  item_ID5  item_ID6  item_ID7  item_ID8  item_ID9 item_ID10
       171       172       173       174       175       176       177       178       179       180
       181      6462      6465      6466      6469      6470      6473      6474      6477      6478
      6481      6482      6485      6486      6489      6490      6493      6494      6497      6498
      6501     12212     12215     12216     12219     12220     12223     12224     12227     12228
     12231     12232     12235     12236     12239     12240     12243     12244     12247     12248
     12251     12382     12384     12385     12387     12388     12390     12391     12393     12394
     12396     12397     12399     12400     12402     12403     12405     12406     12408     12409
     12411     12873     12875     12877     12879     12881     12883     12885     12887     12889
     12891     15853     15855     15857     15859     15861     15863     15865     15867     15869
     15871     18252     18253     18254     18255     18256     18257     18258     18259     18260
     18261     18292     18293     18294     18295     18296     18297     18298     18299     18300
     18301     18463     18465     18467     18469     18471     18473     18475     18477     18479
     18481
#---1----|----2----|----3----|----4----|----5----|----6----|----7----|----8----|----9----|---10----|
#-  5. LOADS:                                                                    
#---1----|----2----|----3----|----4----|----5----|----6----|----7----|----8----|----9----|---10----|
/PLOAD/1
upperSurfaceLoad                                                                                               
#  surf_ID  functIDT sensor_ID                                          Ascale_x            Fscale_y
         3         1         0                                                                      
#---1----|----2----|----3----|----4----|----5----|----6----|----7----|----8----|----9----|---10----|
/FUNCT/1
#title                                                                                              
curve1                                                                                              
#                  X                   Y
                 0.0                 0.0
                 1.0          -1828570.0 
                 3.0          -1828570.0
#---1----|----2----|----3----|----4----|----5----|----6----|----7----|----8----|----9----|---10----|
/SURF/SEG/3
#title                                                                                              
upperLoadedSurface                                                                                                
#   seg_ID  node_ID1  node_ID2  node_ID3  node_ID4
         1      1811      1808      1809      1810
         2      1931      1928      1929      1930
         3      2011      2008      2009      2010
         4      2131      2128      2129      2130
         5      2251      2248      2249      2250
         6      2331      2328      2329      2330
         7      2371      2368      2369      2370
         8      2411      2408      2409      2410
         9      2491      2488      2489      2490
        10      2531      2528      2529      2530
        11      2571      2568      2569      2570
        12      2891      2888      2889      2890
        13      2951      2411      2410      2950
        14      2991      2988      2989      2990
        15      3231      3228      3229      3230
        16      3271      3268      3269      3270
        17      3371      3368      3369      3370
        18      3571      3568      3569      3570
        19      3611      3608      3609      3610
        20      3811      3808      3809      3810
# ... 380 like lines cut
#---1----|----2----|----3----|----4----|----5----|----6----|----7----|----8----|----9----|---10----|
/TH/NODE/1
#thgroup_name
outputZ8                                                                                            
#  var_ID1   var_ID2   var_ID3   var_ID4   var_ID5   var_ID6   var_ID7   var_ID8   var_ID9  var_ID10
     REACX     REACY     REACZ       
#  node_ID   skew_ID                                         node_name
       171         0                                                                                
       172         0                                                                                
       173         0                                                                                
       174         0                                                                                
       175         0                                                                                
       176         0                                                                                
       177         0                                                                                
       178         0                                                                                
       179         0                                                                                
       180         0                                                                                
       181         0                                                                                
      6462         0                                                                                
      6465         0                                                                                
      6466         0                                                                                
      6469         0                                                                                
      6470         0                                                                                
      6473         0                                                                                
      6474         0                                                                                
      6477         0                                                                                
      6478         0                                                                                
# ... 101 like lines cut
#---1----|----2----|----3----|----4----|----5----|----6----|----7----|----8----|----9----|---10----|
/TH/NODE/2
#thgroup_name
outputZ0                                                                                            
#  var_ID1   var_ID2   var_ID3   var_ID4   var_ID5   var_ID6   var_ID7   var_ID8   var_ID9  var_ID10
     REACX     REACY     REACZ       
#  node_ID   skew_ID                                         node_name
         1         0                                                                                
         2         0                                                                                
         3         0                                                                                
         4         0                                                                                
         5         0                                                                                
         6         0                                                                                
         7         0                                                                                
         8         0                                                                                
         9         0                                                                                
        10         0                                                                                
        11         0                                                                                
      8362         0                                                                                
      8363         0                                                                                
      8365         0                                                                                
      8366         0                                                                                
      8368         0                                                                                
      8369         0                                                                                
      8371         0                                                                                
      8372         0                                                                                
      8374         0                                                                                
# ... 101 like lines cut
#---1----|----2----|----3----|----4----|----5----|----6----|----7----|----8----|----9----|---10----|
/TH/NODE/3
#thgroup_name
outputCenter                                                                                        
#  var_ID1   var_ID2   var_ID3   var_ID4   var_ID5   var_ID6   var_ID7   var_ID8   var_ID9  var_ID10
        DX        DY        DZ       
#  node_ID   skew_ID                                         node_name
      8771         0                                                                                
      9561         0                                                                                
     14791         0                                                                                
     18720         0                                                                                
     18901         0                                                                                
##--------------------------------------------------------------------------------------------------
## End Of Radioss Block Deck
##--------------------------------------------------------------------------------------------------
/END