#RADIOSS STARTER
##========================================================================================
##
## Radioss Input Deck Generated by HyperMesh Version  : 2026.0.0.27
## Generated using HyperMesh-Radioss Template Version : 2026.0.0.27-290296
## Date: 03-24-2026   Time: 15:20:14
##
##========================================================================================
##
##
/BEGIN
#Runname                                                                        
solid-openradioss                                                 
#   Invers      Irun
      2024         0
#    Input_mass_unit   Input_length_unit     Input_time_unit
                  kg                   m                   s
#     Work_mass_unit    Work_length_unit      Work_time_unit
                  kg                   m                   s
##
#---1----|----2----|----3----|----4----|----5----|----6----|----7----|----8----|----9----|---10----|
/NODE
#  node_ID                  Xc                  Yc                  Zc
      3016                 7.4                 4.0                 0.0
      3017                 7.4               3.975                 0.0
      3018                 7.4                3.95                 0.0
      3019                 7.4               3.925                 0.0
      3020                 7.4                 3.9                 0.0
      3021                 7.4               3.875                 0.0
      3022                 7.4                3.85                 0.0
      3023                 7.4               3.825                 0.0
      3024                 7.4                 3.8                 0.0
      3025                 7.4               3.775                 0.0
      3026                 7.4                3.75                 0.0
      3027                 7.4               3.725                 0.0
      3028                 7.4                 3.7                 0.0
      3029                 7.4               3.675                 0.0
      3030                 7.4                3.65                 0.0
      3031                 7.4               3.625                 0.0
      3032                 7.4                 3.6                 0.0
      3033                 7.4               3.575                 0.0
      3034                 7.4                3.55                 0.0
      3035                 7.4               3.525                 0.0
# ... 11391 like lines cut
#---1----|----2----|----3----|----4----|----5----|----6----|----7----|----8----|----9----|---10----|
/BRIC20/1
#  bric_ID  node_ID1  node_ID2  node_ID3  node_ID4  node_ID5  node_ID6  node_ID7  node_ID8
# node_ID9 node_ID10 node_ID11 node_ID12 node_ID13 node_ID14 node_ID15 node_ID16
#node_ID17 node_ID18 node_ID19 node_ID20
       481      3365      3361      3362      3366      3660      3661      3662      3663
      7939      7937      7944      7952      7953      7941      7946      7955
      8963      8968      8972      8964
       482      3660      3661      3662      3663      3664      3665      3666      3667
      8963      8968      8972      8964      8965      8969      8973      8976
      8979      8984      8988      8980
       483      3664      3665      3666      3667      3668      3669      3670      3671
      8979      8984      8988      8980      8981      8985      8989      8992
      8995      9000      9004      8996
       484      3668      3669      3670      3671      3672      3673      3674      3675
      8995      9000      9004      8996      8997      9001      9005      9008
      9011      9016      9021      9012
       485      3578      3574      3575      3579      3676      3677      3678      3679
      8671      8670      8676      8687      8688      8673      8678      8690
      9028      9033      9037      9029
       486      3676      3677      3678      3679      3680      3681      3682      3683
      9028      9033      9037      9029      9030      9034      9038      9041
      9044      9049      9053      9045
       487      3680      3681      3682      3683      3684      3685      3686      3687
      9044      9049      9053      9045      9046      9050      9054      9057
# ... 5740 like lines cut
#---1----|----2----|----3----|----4----|----5----|----6----|----7----|----8----|----9----|---10----|
#-  1. PART:                                                                    
#---1----|----2----|----3----|----4----|----5----|----6----|----7----|----8----|----9----|---10----|
/PART/1
#part_title                                                                                         
flapPart                                                                                            
#  prop_ID    mat_ID                         Thick
         1         1                              
#---1----|----2----|----3----|----4----|----5----|----6----|----7----|----8----|----9----|---10----|
#-  2. MATERIAL DEFINITION:                                                                    
#---1----|----2----|----3----|----4----|----5----|----6----|----7----|----8----|----9----|---10----|
/MAT/OGDEN/1
flapMaterial                                                                                           
#              RHO_I
                1020
#                 Nu           sigma_cut           funIDbulk         Fscale_bulk         M    I_form
                0.49                   0                   0                   0         0         1  
#               Mu_1                Mu_2                Mu_3                Mu_4                Mu_5
           3616000.0          -3562000.0                   
#               Mu_6                Mu_7                Mu_8                Mu_9               Mu_10
                  
#            alpha_1             alpha_2             alpha_3             alpha_4             alpha_5
                   2                  -2                   
#            alpha_6             alpha_7             alpha_8             alpha_9            alpha_10
                   
#---1----|----2----|----3----|----4----|----5----|----6----|----7----|----8----|----9----|---10----|
#-  3. PROPERTIES DEFINITION:                                                                    
#---1----|----2----|----3----|----4----|----5----|----6----|----7----|----8----|----9----|---10----|
/PROP/SOLID/1
flapProperty                                                                                        
#   Isolid    Ismstr      Iale     Icpre  Itetra10     Inpts   Itetra4    Iframe                  Dn
        16         0         0         0         0         0         0         0                 0.0
#                 qa                  qb                   h              Lambda                  Mu
                 0.0                 0.0                 0.0                 0.0                 0.0
#         deltaT_min            Vdef_min            Vdef_max             ASP_max             COL_min
                 0.0                 0.0                 0.0                 0.0                 0.0
#---1----|----2----|----3----|----4----|----5----|----6----|----7----|----8----|----9----|---10----|
#-  4. BOUNDARY CONDITIONS:                                                                    
#---1----|----2----|----3----|----4----|----5----|----6----|----7----|----8----|----9----|---10----|
/BCS/1
fixedWallZ0                                                                                         
#  Tra rot   skew_ID  grnod_ID
   111 000         0         1
#---1----|----2----|----3----|----4----|----5----|----6----|----7----|----8----|----9----|---10----|
/GRNOD/NODE/1
#title                                                                                              
fixedEnd
# item_ID1  item_ID2  item_ID3  item_ID4  item_ID5  item_ID6  item_ID7  item_ID8  item_ID9 item_ID10
      3176      3177      3178      3179      5105      5106      5108      5109      5111      5112
      5114      5115      5868      5869      5870      5871      6229      6231      6233      6235
      7184      7186      7187      7189      7191      7194      7198     14740     14741     14743
     14747     14754     14755     14758     14762     14769     14770     14773     14777     14782
     14784     17013     17014     17016     17018     17020     17022     17026     17783     17788
     17793
#---1----|----2----|----3----|----4----|----5----|----6----|----7----|----8----|----9----|---10----|
#-  5. INTERFACES:                                                                    
#---1----|----2----|----3----|----4----|----5----|----6----|----7----|----8----|----9----|---10----|
/GRNOD/NODE/2
#title                                                                                              
interface
# item_ID1  item_ID2  item_ID3  item_ID4  item_ID5  item_ID6  item_ID7  item_ID8  item_ID9 item_ID10
      3016      3017      3018      3019      3020      3021      3022      3023      3024      3025
      3026      3027      3028      3029      3030      3031      3032      3033      3034      3035
      3036      3037      3038      3039      3040      3041      3042      3043      3044      3045
      3046      3047      3048      3049      3050      3051      3052      3053      3054      3055
      3056      3057      3058      3059      3060      3061      3062      3063      3064      3065
      3066      3067      3068      3069      3070      3071      3072      3073      3074      3075
      3076      3077      3078      3079      3080      3081      3082      3083      3084      3085
      3086      3087      3088      3089      3090      3091      3092      3093      3094      3095
      3096      3097      3098      3099      3100      3101      3102      3103      3104      3105
      3106      3107      3108      3109      3110      3111      3112      3113      3114      3115
      3116      3117      3118      3119      3120      3121      3122      3123      3124      3125
      3126      3127      3128      3129      3130      3131      3132      3133      3134      3135
      3136      3137      3138      3139      3140      3141      3142      3143      3144      3145
      3146      3147      3148      3149      3150      3151      3152      3153      3154      3155
      3156      3157      3158      3159      3160      3161      3162      3163      3164      3165
      3166      3167      3168      3169      3170      3171      3172      3173      3174      3175
      3176      3177      3178      3179      3180      3181      3182      3183      3184      3185
      3186      3187      3188      3189      3190      3191      3192      3193      3194      3195
      3196      3197      3198      3199      3200      3201      3202      3203      3204      3205
      3206      3207      3208      3209      3210      3211      3212      3213      3214      3215
# ... 338 like lines cut
##--------------------------------------------------------------------------------------------------
## End Of Radioss Block Deck
##--------------------------------------------------------------------------------------------------
/END
