#RADIOSS STARTER
##========================================================================================
##
## Radioss Input Deck Generated by HyperMesh Version  : 2026.0.0.27
## Generated using HyperMesh-Radioss Template Version : 2026.0.0.27-290296
## Date: 02-18-2026   Time: 15:55:26
##
##========================================================================================
##
##
/BEGIN
#Runname                                                                        
pulsatingFlap                                                                  
#   Invers      Irun
      2024         0
#    Input_mass_unit   Input_length_unit     Input_time_unit
                  kg                   m                   s
#     Work_mass_unit    Work_length_unit      Work_time_unit
                  kg                   m                   s
##
#---1----|----2----|----3----|----4----|----5----|----6----|----7----|----8----|----9----|---10----|
/NODE
#  node_ID                  Xc                  Yc                  Zc
       723                0.57                 0.0                -0.3
       724                0.57              0.0875                -0.3
       725                0.57               0.175                -0.3
       726                0.57              0.2625                -0.3
       727                0.57                0.35                -0.3
       728                0.57                0.35                -0.2
       729                0.57                0.35                -0.1
       730                0.57                0.35                 0.0
       731                0.57                0.35                 0.1
       732                0.57                0.35                 0.2
       733                0.57                0.35                 0.3
       734                0.57              0.2625                 0.3
       735                0.57               0.175                 0.3
       736                0.57              0.0875                 0.3
       737                0.57                 0.0                 0.3
       738                0.57                 0.0                 0.2
       739                0.57                 0.0                 0.1
       740                0.57                 0.0                 0.0
       741                0.57                 0.0                -0.1
       742                0.57                 0.0                -0.2
# ... 329 like lines cut
#---1----|----2----|----3----|----4----|----5----|----6----|----7----|----8----|----9----|---10----|
/BRIC20/1
#  bric_ID  node_ID1  node_ID2  node_ID3  node_ID4  node_ID5  node_ID6  node_ID7  node_ID8
# node_ID9 node_ID10 node_ID11 node_ID12 node_ID13 node_ID14 node_ID15 node_ID16
#node_ID17 node_ID18 node_ID19 node_ID20
        25       725       747       749       726       758       759       760       761
       837       932       843       836       839       935       938       845
       959       965       969       960
        26       758       759       760       761       762       763       764       765
       959       965       969       960       961       966       970       974
       977       981       984       978
        27       748       743       730       729       766       767       768       769
       911       857       853       854       937       913       859       855
       991       995       999       992
        28       766       767       768       769       770       771       772       773
       991       995       999       992       993       996      1000      1005
      1008      1012      1017      1009
        29       751       750       746       747       774       775       776       759
       939       928       925       934       941       940       930       935
      1023      1027       968       967
        30       774       775       776       759       777       778       779       763
      1023      1027       968       967      1024      1028      1031       966
      1033      1038       983       982
        31       738       737       736       756       780       781       782       783
       884       880       882       887       889       885       883       957
# ... 124 like lines cut
#---1----|----2----|----3----|----4----|----5----|----6----|----7----|----8----|----9----|---10----|
#-  1. PART:                                                                    
#---1----|----2----|----3----|----4----|----5----|----6----|----7----|----8----|----9----|---10----|
/PART/1
#part_title                                                                                         
flapPart                                                                                            
#  prop_ID    mat_ID                         Thick
         1         1                              
#---1----|----2----|----3----|----4----|----5----|----6----|----7----|----8----|----9----|---10----|
#-  2. MATERIAL DEFINITION:                                                                    
#---1----|----2----|----3----|----4----|----5----|----6----|----7----|----8----|----9----|---10----|
/MAT/OGDEN/1
flapMaterial                                                                                           
#              RHO_I
                 250
#                 Nu           sigma_cut           funIDbulk         Fscale_bulk         M    I_form
                 0.4                   0                   0                   0         0         1  
#               Mu_1                Mu_2                Mu_3                Mu_4                Mu_5
            178.5714                   0                   
#               Mu_6                Mu_7                Mu_8                Mu_9               Mu_10
                   
#            alpha_1             alpha_2             alpha_3             alpha_4             alpha_5
                   2                   0                   
#            alpha_6             alpha_7             alpha_8             alpha_9            alpha_10
                   
#---1----|----2----|----3----|----4----|----5----|----6----|----7----|----8----|----9----|---10----|
#-  3. PROPERTIES DEFINITION:                                                                    
#---1----|----2----|----3----|----4----|----5----|----6----|----7----|----8----|----9----|---10----|
/PROP/SOLID/1
flapProperty                                                                                        
#   Isolid    Ismstr      Iale     Icpre  Itetra10     Inpts   Itetra4    Iframe                  Dn
        16         0         0         0         0         0         0         0                 0.0
#                 qa                  qb                   h              Lambda                  Mu
                 0.0                 0.0                 0.0                 0.0                 0.0
#         deltaT_min            Vdef_min            Vdef_max             ASP_max             COL_min
                 0.0                 0.0                 0.0                 0.0                 0.0
#---1----|----2----|----3----|----4----|----5----|----6----|----7----|----8----|----9----|---10----|
#-  4. BOUNDARY CONDITIONS:                                                                    
#---1----|----2----|----3----|----4----|----5----|----6----|----7----|----8----|----9----|---10----|
/BCS/1
fixedWallZ0                                                                                         
#  Tra rot   skew_ID  grnod_ID
   111 000         0         1
#---1----|----2----|----3----|----4----|----5----|----6----|----7----|----8----|----9----|---10----|
/GRNOD/NODE/1
#title                                                                                              
fixedEnd                                                                                            
# item_ID1  item_ID2  item_ID3  item_ID4  item_ID5  item_ID6  item_ID7  item_ID8  item_ID9 item_ID10
       723       737       738       739       740       741       742       780       781       784
       785       812       813       814       815       818       819       824       825       826       
	827       829       831       884       885       886       889       891       895       897
       901       902       906       909      1046      1048      1050      1054      1064      1067
      1136      1137      1139      1142      1143      1145      1147      1149      1155      1156
      1159      1166      1167
#---1----|----2----|----3----|----4----|----5----|----6----|----7----|----8----|----9----|---10----|
#-  5. INTERFACES:                                                                    
#---1----|----2----|----3----|----4----|----5----|----6----|----7----|----8----|----9----|---10----|
/GRNOD/NODE/2
#title                                                                                              
interface                                                                                           
# item_ID1  item_ID2  item_ID3  item_ID4  item_ID5  item_ID6  item_ID7  item_ID8  item_ID9 item_ID10
       723       724       725       726       727       728       729       730       731       732
       733       734       735       736       737       738       739       740       741       742
       743       744       745       746       747       748       749       750       751       752
       753       754       755       756       757       762       763       764       765       768
       769       770       771       772       773       777       778       779       784       785
       786       787       792       793       794       795       796       797       798       799
       802       803       806       807       809       811       814       815       816       817
       819       820       821       822       823       825       827       828       829       832
       834       836       837       841       843       847       849       850       851       852
	853       854       855       856       857       859       861       863       865       867
       868       870       871       872       873       874       876       877       880       882
       884       886       887       891       893       897       898       902       904       908
       910       911       912       914       915       917       921       923       925       926
       928       932       934       936       939       942       943       945       949       951
       953       956       977       978       980       981       982       983       984       985
       986       990       999      1000      1002      1005      1006      1008      1009      1010
      1012      1014      1015      1017      1020      1022      1033      1034      1035      1038
      1039      1042      1045      1064      1065      1067      1068      1069      1071      1072
      1073      1089      1090      1091      1093      1094      1096      1099      1101      1102
      1103      1106      1107      1114      1115      1117      1118      1124      1125      1126
      1129      1135      1145      1147      1149      1150      1151      1154      1159      1160
      1161      1164      1165
##--------------------------------------------------------------------------------------------------
## End Of Radioss Block Deck
##--------------------------------------------------------------------------------------------------
/END