#RADIOSS STARTER
##========================================================================================
##
## Radioss Input Deck Generated by HyperMesh Version  : 2026.0.0.27
## Generated using HyperMesh-Radioss Template Version : 2026.0.0.27-290296
## Date: 02-18-2026   Time: 13:21:36
##
##========================================================================================
##
##
/BEGIN
#Runname                                                                        
solid-openradioss-case1                                                         
#   Invers      Irun
      2024         0
#    Input_mass_unit   Input_length_unit     Input_time_unit
                  kg                   m                   s
#     Work_mass_unit    Work_length_unit      Work_time_unit
                  kg                   m                   s
##
#---1----|----2----|----3----|----4----|----5----|----6----|----7----|----8----|----9----|---10----|
/NODE
#  node_ID                  Xc                  Yc                  Zc
       745                0.57                 0.0                -0.3
       746                0.57              0.0875                -0.3
       747                0.57               0.175                -0.3
       748                0.57              0.2625                -0.3
       749                0.57                0.35                -0.3
       750                0.57                0.35                -0.2
       751                0.57                0.35                -0.1
       752                0.57                0.35                 0.0
       753                0.57                0.35                 0.1
       754                0.57                0.35                 0.2
       755                0.57                0.35                 0.3
       756                0.57              0.2625                 0.3
       757                0.57               0.175                 0.3
       758                0.57              0.0875                 0.3
       759                0.57                 0.0                 0.3
       760                0.57                 0.0                 0.2
       761                0.57                 0.0                 0.1
       762                0.57                 0.0                 0.0
       763                0.57                 0.0                -0.1
       764                0.57                 0.0                -0.2
# ... 85 like lines cut
#---1----|----2----|----3----|----4----|----5----|----6----|----7----|----8----|----9----|---10----|
/BRICK/1
# brick_ID  node_ID1  node_ID2  node_ID3  node_ID4  node_ID5  node_ID6  node_ID7  node_ID8
        25       779       778       774       775       780       781       782       783
        26       780       781       782       783       784       785       786       787
        27       746       773       769       747       788       789       790       791
        28       788       789       790       791       792       793       794       795
        29       771       770       751       750       796       797       798       799
        30       796       797       798       799       800       801       802       803
        31       762       761       779       767       804       805       780       806
        32       804       805       780       806       807       808       784       809
        33       747       769       771       748       791       790       796       810
        34       791       790       796       810       795       794       800       811
        35       769       768       770       771       790       812       797       796
        36       790       812       797       796       794       813       801       800
        37       766       775       777       765       814       783       815       816
        38       814       783       815       816       817       787       818       819
        39       777       776       754       753       815       820       821       822
        40       815       820       821       822       818       823       824       825
        41       745       764       773       746       826       827       789       788
        42       826       827       789       788       828       829       793       792
        43       768       766       765       770       812       814       816       797
        44       812       814       816       797       813       817       819       801
# ... 28 like lines cut
#---1----|----2----|----3----|----4----|----5----|----6----|----7----|----8----|----9----|---10----|
#-  1. PART:                                                                    
#---1----|----2----|----3----|----4----|----5----|----6----|----7----|----8----|----9----|---10----|
/PART/1
#part_title                                                                                         
flapPart                                                                                            
#  prop_ID    mat_ID                         Thick
         1         1                              
#---1----|----2----|----3----|----4----|----5----|----6----|----7----|----8----|----9----|---10----|
#-  2. MATERIAL DEFINITION:                                                                    
#---1----|----2----|----3----|----4----|----5----|----6----|----7----|----8----|----9----|---10----|
/MAT/OGDEN/1
flapMaterial                                                                                           
#              RHO_I
                 250
#                 Nu           sigma_cut           funIDbulk         Fscale_bulk         M    I_form
                 0.4                   0                   0                   0         0         1  
#               Mu_1                Mu_2                Mu_3                Mu_4                Mu_5
            178.5714                   0                   
#               Mu_6                Mu_7                Mu_8                Mu_9               Mu_10
                   
#            alpha_1             alpha_2             alpha_3             alpha_4             alpha_5
                   2                   0                   
#            alpha_6             alpha_7             alpha_8             alpha_9            alpha_10
                   
#---1----|----2----|----3----|----4----|----5----|----6----|----7----|----8----|----9----|---10----|
#-  3. PROPERTIES DEFINITION:                                                                    
#---1----|----2----|----3----|----4----|----5----|----6----|----7----|----8----|----9----|---10----|
/PROP/SOLID/1
flapProperty                                                                                        
#   Isolid    Ismstr      Iale     Icpre  Itetra10     Inpts   Itetra4    Iframe                  Dn
        18         0         0         0         0         0         0         0                 0.0
#                 qa                  qb                   h              Lambda                  Mu
                 0.0                 0.0                 0.0                 0.0                 0.0
#         deltaT_min            Vdef_min            Vdef_max             ASP_max             COL_min
                 0.0                 0.0                 0.0                 0.0                 0.0
#---1----|----2----|----3----|----4----|----5----|----6----|----7----|----8----|----9----|---10----|
#-  4. BOUNDARY CONDITIONS:                                                                    
#---1----|----2----|----3----|----4----|----5----|----6----|----7----|----8----|----9----|---10----|
/BCS/1
fixedWallZ0                                                                                         
#  Tra rot   skew_ID  grnod_ID
   111 000         0         1
#---1----|----2----|----3----|----4----|----5----|----6----|----7----|----8----|----9----|---10----|
/GRNOD/NODE/1
#title                                                                                              
fixedEnd                                                                                            
# item_ID1  item_ID2  item_ID3  item_ID4  item_ID5  item_ID6  item_ID7  item_ID8  item_ID9 item_ID10
       745       759       760       761       762       763       764       804       805       807
       808       826       827       828       829       830       831       832       834       848
       849
#---1----|----2----|----3----|----4----|----5----|----6----|----7----|----8----|----9----|---10----|
#-  5. INTERFACES:                                                                    
#---1----|----2----|----3----|----4----|----5----|----6----|----7----|----8----|----9----|---10----|
/GRNOD/NODE/2
#title                                                                                              
interface                                                                                           
# item_ID1  item_ID2  item_ID3  item_ID4  item_ID5  item_ID6  item_ID7  item_ID8  item_ID9 item_ID10
       745       746       747       748       749       750       751       752       753       754
       755       756       757       758       759       760       761       762       763       764
       765       766       767       768       769       770       771       772       773       774
       775       776       777       778       779       784       785       786       787       792
       793       794       795       798       799       800       801       802       803       807
       808       809       811       813       817       818       819       821       822       823
       824       825       828       829       831       834       835       838       839       840
       841       842       843       844       845       847       849
                                                                      
##--------------------------------------------------------------------------------------------------
## End Of Radioss Block Deck
##--------------------------------------------------------------------------------------------------
/END