#RADIOSS STARTER
##========================================================================================
##
## Radioss Input Deck Generated by HyperMesh Version  : 2026.0.0.27
## Generated using HyperMesh-Radioss Template Version : 2026.0.0.27-290296
## Date: 03-11-2026   Time: 11:15:27
##
##========================================================================================
##
##
/BEGIN
#Runname                                                                        
solid-openradioss
#   Invers      Irun
      2024         0
#    Input_mass_unit   Input_length_unit     Input_time_unit
                  kg                   m                   s
#     Work_mass_unit    Work_length_unit      Work_time_unit
                  kg                   m                   s
##
#---1----|----2----|----3----|----4----|----5----|----6----|----7----|----8----|----9----|---10----|
/NODE
#  node_ID                  Xc                  Yc                  Zc
      3016                7.55                 0.0                 0.0
      3017                7.55                 0.1                 0.0
      3018                7.55                 0.2                 0.0
      3019                7.55                 0.3                 0.0
      3020                7.55                 0.4                 0.0
      3021                7.55                 0.5                 0.0
      3022                7.55                 0.6                 0.0
      3023                7.55                 0.7-2.7755575615629E-17
      3024                7.55                 0.8                 0.0
      3025                7.55                 0.9-2.7755575615629E-17
      3026                7.55                 1.0                 0.0
      3027                7.55                 1.1                 0.0
      3028                7.55                 1.22.77555756156289E-17
      3029                7.55                 1.3                 0.0
      3030                7.55                 1.4                 0.0
      3031                7.55                 1.5                 0.0
      3032                7.55                 1.6                 0.0
      3033                7.55                 1.7                 0.0
      3034                7.55                 1.8                 0.0
      3035                7.55                 1.9                 0.0
# ... 2260 like lines cut
#---1----|----2----|----3----|----4----|----5----|----6----|----7----|----8----|----9----|---10----|
/BRIC20/1
#  bric_ID  node_ID1  node_ID2  node_ID3  node_ID4  node_ID5  node_ID6  node_ID7  node_ID8
# node_ID9 node_ID10 node_ID11 node_ID12 node_ID13 node_ID14 node_ID15 node_ID16
#node_ID17 node_ID18 node_ID19 node_ID20
       121      3104      3105      3129      3128      3180      3181      3182      3183
      4095      4104      4187      4098      4100      4105      4189      4188
      4353      4358      4362      4354
       122      3180      3181      3182      3183      3184      3185      3186      3187
      4353      4358      4362      4354      4355      4359      4363      4366
      4369      4374      4378      4370
       123      3184      3185      3186      3187      3188      3189      3190      3191
      4369      4374      4378      4370      4371      4375      4379      4382
      4385      4390      4394      4386
       124      3123      3122      3120      3121      3192      3193      3194      3195
      4162      4156      4155      4160      4164      4163      4158      4161
      4403      4407      4410      4404
       125      3192      3193      3194      3195      3196      3197      3198      3199
      4403      4407      4410      4404      4405      4408      4411      4414
      4417      4421      4424      4418
       126      3196      3197      3198      3199      3200      3201      3202      3203
      4417      4421      4424      4418      4419      4422      4425      4428
      4431      4435      4438      4432
       127      3057      3056      3055      3111      3204      3205      3206      3207
      3852      3848      3850      3855      3856      3853      3851      4130
# ... 1060 like lines cut
#---1----|----2----|----3----|----4----|----5----|----6----|----7----|----8----|----9----|---10----|
#-  1. PART:                                                                    
#---1----|----2----|----3----|----4----|----5----|----6----|----7----|----8----|----9----|---10----|
/PART/1
#part_title                                                                                         
beamPart                                                                                            
#  prop_ID    mat_ID                         Thick
         1         1                              
#---1----|----2----|----3----|----4----|----5----|----6----|----7----|----8----|----9----|---10----|
#-  2. MATERIAL DEFINITION:                                                                    
#---1----|----2----|----3----|----4----|----5----|----6----|----7----|----8----|----9----|---10----|
/MAT/PLAS_JOHNS/1
aluminum_ElastoPlastic                                                                                           
#              RHO_I
              2700.0
#                  E                  Nu     Iflag        VP                Pmin
       70000000000.0                 0.3         0                              
#                  a                   b                   n           EPS_p_max            SIG_max0
         324000000.0         114000000.0                0.42                   0                   0  
#                  c           EPS_DOT_0       ICC   Fsmooth               F_cut               Chard
                   0                   0         0         0                   0                   0  
#                  m              T_melt              rhoC_p                 T_r
                   0                   0                   0                   0                                                             
#---1----|----2----|----3----|----4----|----5----|----6----|----7----|----8----|----9----|---10----|
#-  3. PROPERTIES DEFINITION:                                                                    
#---1----|----2----|----3----|----4----|----5----|----6----|----7----|----8----|----9----|---10----|
/PROP/SOLID/1
beamProperty                                                                                        
#   Isolid    Ismstr      Iale     Icpre  Itetra10     Inpts   Itetra4    Iframe                  Dn
        16         0         0         0         0         0         0         0                 0.0
#                 qa                  qb                   h              Lambda                  Mu
                 0.0                 0.0                 0.0                 0.0                 0.0
#         deltaT_min            Vdef_min            Vdef_max             ASP_max             COL_min
                 0.0                 0.0                 0.0                 0.0                 0.0
#---1----|----2----|----3----|----4----|----5----|----6----|----7----|----8----|----9----|---10----|
#-  4. BOUNDARY CONDITIONS:                                                                    
#---1----|----2----|----3----|----4----|----5----|----6----|----7----|----8----|----9----|---10----|
/BCS/1
fixedWallZ0                                                                                         
#  Tra rot   skew_ID  grnod_ID
   111 000         0         1
#---1----|----2----|----3----|----4----|----5----|----6----|----7----|----8----|----9----|---10----|
/GRNOD/NODE/1
#title                                                                                              
fixedEnd                                                                                              
# item_ID1  item_ID2  item_ID3  item_ID4  item_ID5  item_ID6  item_ID7  item_ID8  item_ID9 item_ID10
      3016      3099      3100      3101      3359      3360      3363      3364      3367      3368
      3526      3528      3530      3636      3637      3638      3673      3675      4074      4076
      4077      4080      4083      5086      5087      5089      5092      5093      5104      5105
      5108      5111      5113      5125      5128      5131      5650      5658      5944      5945
#---1----|----2----|----3----|----4----|----5----|----6----|----7----|----8----|----9----|---10----|
/GRNOD/NODE/2
#title                                                                                              
interface
# item_ID1  item_ID2  item_ID3  item_ID4  item_ID5  item_ID6  item_ID7  item_ID8  item_ID9 item_ID10
      3016      3017      3018      3019      3020      3021      3022      3023      3024      3025
      3026      3027      3028      3029      3030      3031      3032      3033      3034      3035
      3036      3037      3038      3039      3040      3041      3042      3043      3044      3045
      3046      3047      3048      3049      3050      3051      3052      3053      3054      3055
      3056      3057      3058      3059      3060      3061      3062      3063      3064      3065
      3066      3067      3068      3069      3070      3071      3072      3073      3074      3075
      3076      3077      3078      3079      3080      3081      3082      3083      3084      3085
      3086      3087      3088      3089      3090      3091      3092      3093      3094      3095
      3096      3097      3098      3099      3100      3101      3102      3103      3104      3105
      3106      3107      3108      3109      3110      3111      3112      3113      3114      3115
      3116      3117      3118      3119      3120      3121      3122      3123      3124      3125
      3126      3127      3128      3129      3130      3131      3132      3133      3134      3135
      3136      3137      3138      3139      3140      3141      3142      3143      3144      3145
      3146      3147      3148      3149      3150      3151      3152      3153      3154      3155
      3156      3157      3158      3159      3160      3161      3162      3163      3164      3165
      3166      3167      3168      3169      3170      3171      3172      3173      3174      3175
      3176      3177      3178      3179      3188      3189      3190      3191      3200      3201
      3202      3203      3204      3205      3208      3209      3212      3213      3214      3215
      3224      3225      3226      3227      3236      3237      3238      3239      3248      3249
      3250      3251      3260      3261      3262      3263      3270      3271      3272      3275
# ... 72 like lines cut
##--------------------------------------------------------------------------------------------------
## End Of Radioss Block Deck
##--------------------------------------------------------------------------------------------------
/END