#RADIOSS STARTER
##========================================================================================
##
## Radioss Input Deck Generated by HyperMesh Version  : 2026.0.0.27
## Generated using HyperMesh-Radioss Template Version : 2026.0.0.27-290296
## Date: 02-20-2026   Time: 16:50:21
##
##========================================================================================
##
##
/BEGIN
#Runname                                                                        
pulsatingFlap
#   Invers      Irun
      2024         0
#    Input_mass_unit   Input_length_unit     Input_time_unit
                  kg                   m                   s
#     Work_mass_unit    Work_length_unit      Work_time_unit
                  kg                   m                   s
##
#---1----|----2----|----3----|----4----|----5----|----6----|----7----|----8----|----9----|---10----|
/NODE
#  node_ID                  Xc                  Yc                  Zc
       869                0.57                 0.0                -0.3
       870                0.57             0.04375                -0.3
       871                0.57              0.0875                -0.3
       872                0.57             0.13125                -0.3
       873                0.57               0.175                -0.3
       874                0.57             0.21875                -0.3
       875                0.57              0.2625                -0.3
       876                0.57             0.30625                -0.3
       877                0.57                0.35                -0.3
       878                0.57                0.35               -0.25
       879                0.57                0.35                -0.2
       880                0.57                0.35               -0.15
       881                0.57                0.35                -0.1
       882                0.57                0.35               -0.05
       883                0.57                0.35                 0.0
       884                0.57                0.35                0.05
       885                0.57                0.35                 0.1
       886                0.57                0.35                0.15
       887                0.57                0.35                 0.2
       888                0.57                0.35                0.25
# ... 2093 like lines cut
#---1----|----2----|----3----|----4----|----5----|----6----|----7----|----8----|----9----|---10----|
/BRIC20/1
#  bric_ID  node_ID1  node_ID2  node_ID3  node_ID4  node_ID5  node_ID6  node_ID7  node_ID8
# node_ID9 node_ID10 node_ID11 node_ID12 node_ID13 node_ID14 node_ID15 node_ID16
#node_ID17 node_ID18 node_ID19 node_ID20
        97       922       931       933       921       986       987       988       989
      1707      1739      1702      1700      1709      1742      1745      1703
      1919      1924      1928      1920
        98       986       987       988       989       990       991       992       993
      1919      1924      1928      1920      1921      1925      1929      1932
      1935      1940      1944      1936
        99       990       991       992       993       994       995       996       997
      1935      1940      1944      1936      1937      1941      1945      1948
      1951      1956      1960      1952
       100       994       995       996       997       998       999      1000      1001
      1951      1956      1960      1952      1953      1957      1961      1964
      1967      1974      1979      1968
       101       981       980       982       983      1002      1003      1004      1005
      1902      1903      1913      1909      1912      1907      1914      1915
      1988      1993      1997      1989
       102      1002      1003      1004      1005      1006      1007      1008      1009
      1988      1993      1997      1989      1990      1994      1998      2001
      2004      2009      2013      2005
       103      1006      1007      1008      1009      1010      1011      1012      1013
      2004      2009      2013      2005      2006      2010      2014      2017
# ... 1132 like lines cut
#---1----|----2----|----3----|----4----|----5----|----6----|----7----|----8----|----9----|---10----|
#-  1. PART:                                                                    
#---1----|----2----|----3----|----4----|----5----|----6----|----7----|----8----|----9----|---10----|
/PART/1
#part_title                                                                                         
flapPart                                                                                            
#  prop_ID    mat_ID                         Thick
         1         1                              
#---1----|----2----|----3----|----4----|----5----|----6----|----7----|----8----|----9----|---10----|
#-  2. MATERIAL DEFINITION:                                                                    
#---1----|----2----|----3----|----4----|----5----|----6----|----7----|----8----|----9----|---10----|
/MAT/OGDEN/1
flapMaterial                                                                                           
#              RHO_I
                 250
#                 Nu           sigma_cut           funIDbulk         Fscale_bulk         M    I_form
                 0.4                   0                   0                   0         0         1  
#               Mu_1                Mu_2                Mu_3                Mu_4                Mu_5
            178.5714                   0                   
#               Mu_6                Mu_7                Mu_8                Mu_9               Mu_10
                   
#            alpha_1             alpha_2             alpha_3             alpha_4             alpha_5
                   2                   0                   
#            alpha_6             alpha_7             alpha_8             alpha_9            alpha_10
                   
#---1----|----2----|----3----|----4----|----5----|----6----|----7----|----8----|----9----|---10----|
#-  3. PROPERTIES DEFINITION:                                                                    
#---1----|----2----|----3----|----4----|----5----|----6----|----7----|----8----|----9----|---10----|
/PROP/SOLID/1
flapProperty                                                                                        
#   Isolid    Ismstr      Iale     Icpre  Itetra10     Inpts   Itetra4    Iframe                  Dn
        16         0         0         0         0         0         0         0                 0.0
#                 qa                  qb                   h              Lambda                  Mu
                 0.0                 0.0                 0.0                 0.0                 0.0
#         deltaT_min            Vdef_min            Vdef_max             ASP_max             COL_min
                 0.0                 0.0                 0.0                 0.0                 0.0
#---1----|----2----|----3----|----4----|----5----|----6----|----7----|----8----|----9----|---10----|
#-  4. BOUNDARY CONDITIONS:                                                                    
#---1----|----2----|----3----|----4----|----5----|----6----|----7----|----8----|----9----|---10----|
/BCS/1
fixedWallZ0                                                                                         
#  Tra rot   skew_ID  grnod_ID
   111 000         0         1
#---1----|----2----|----3----|----4----|----5----|----6----|----7----|----8----|----9----|---10----|
/GRNOD/NODE/1
#title                                                                                              
fixedEnd                                                                                            
# item_ID1  item_ID2  item_ID3  item_ID4  item_ID5  item_ID6  item_ID7  item_ID8  item_ID9 item_ID10
       869       897       898       899       900       901       902       903       904       905
       906       907       908      1052      1053      1056      1057      1060      1061      1064
      1065      1191      1193      1195      1197      1255      1257      1259      1261      1290
      1291      1292      1293      1302      1303      1304      1305      1306      1307      1308
      1309      1310      1311      1312      1313      1347      1349      1351      1353      1358
      1359      1360      1361      1362      1363      1364      1365      1366      1367      1368
      1369      1450      1451      1452      1453      1455      1457      1591      1593      1594
      1596      1597      1599      1600      1603      1604      1607      1609      1612      1614
      1618      1620      1624      1625      1627      1628      1631      1632      1635      1637
      2189      2190      2192      2195      2196      2207      2208      2211      2214      2216
      2227      2228      2231      2234      2236      2248      2251      2254      2741      2742
      2748      2750      2756      2758      2768      2973      2974      2980      2982      2988
      2990      3000      3084      3085      3086      3102      3103      3105      3108      3109
      3111      3112      3115      3118      3120      3122      3123      3126      3129      3131
      3133      3135      3137      3138      3139      3141      3143      3145      3147      3151
      3222      3223      3227      3229      3233      3235      3239      3247      3248      3249
      3250      3251      3254      3255      3257      3258      3261      3263      3265      3266
      3269      3271      3273      3276      3471      3472      3473
#---1----|----2----|----3----|----4----|----5----|----6----|----7----|----8----|----9----|---10----|
#-  5. INTERFACES:                                                                    
#---1----|----2----|----3----|----4----|----5----|----6----|----7----|----8----|----9----|---10----|
/GRNOD/NODE/2
#title                                                                                              
interface                                                                                           
# item_ID1  item_ID2  item_ID3  item_ID4  item_ID5  item_ID6  item_ID7  item_ID8  item_ID9 item_ID10
       869       870       871       872       873       874       875       876       877       878
       879       880       881       882       883       884       885       886       887       888
       889       890       891       892       893       894       895       896       897       898
       899       900       901       902       903       904       905       906       907       908
       909       910       911       912       913       914       915       916       917       918
       919       920       921       922       923       924       925       926       927       928
       929       930       931       932       933       934       935       936       937       938
       939       940       941       942       943       944       945       946       947       948
       949       950       951       952       953       954       955       956       957       958
       959       960       961       962       963       964       965       966       967       968
       969       970       971       972       973       974       975       976       977       978
       979       980       981       982       983       984       985       998       999      1000
      1001      1014      1015      1016      1017      1030      1031      1032      1033      1046
      1047      1048      1049      1062      1063      1064      1065      1072      1073      1083
      1084      1085      1098      1099      1100      1101      1108      1109      1122      1123
      1124      1125      1126      1127      1128      1129      1130      1131      1132      1133
      1140      1141      1154      1155      1156      1157      1164      1165      1172      1173
      1186      1187      1188      1189      1196      1197      1204      1205      1206      1207
      1209      1210      1212      1213      1215      1216      1217      1227      1228      1229
      1236      1237      1238      1239      1240      1241      1251      1252      1253      1260
# ... 59 like lines cut
##--------------------------------------------------------------------------------------------------
## End Of Radioss Block Deck
##--------------------------------------------------------------------------------------------------
/END