#RADIOSS STARTER
##========================================================================================
##
## Radioss Input Deck Generated by HyperMesh Version  : 2026.0.0.27
## Generated using HyperMesh-Radioss Template Version : 2026.0.0.27-290296
## Date: 04-01-2026   Time: 20:41:49
##
##========================================================================================
##
##
/BEGIN
#Runname                                                                        
monolithic-beam-tutorial                                                        
#   Invers      Irun
      2026         0
#    Input_mass_unit   Input_length_unit     Input_time_unit
                  kg                   m                   s
#     Work_mass_unit    Work_length_unit      Work_time_unit
                  kg                   m                   s
##
#---1----|----2----|----3----|----4----|----5----|----6----|----7----|----8----|----9----|---10----|
/NODE
#  node_ID                  Xc                  Yc                  Zc
     21655                 0.0                 0.0                 0.0
     21656                 0.5                 0.0                 0.0
     21657                 1.0                 0.0                 0.0
     21658                 1.0                 0.0                 1.0
     21659                 1.0                 0.0                 2.0
     21660                 1.0                 0.0                 3.0
     21661                 1.0                 0.0                 4.0
     21662                 1.0                 0.0                 5.0
     21663                 1.0                 0.0                 6.0
     21664                 1.0                 0.0                 7.0
     21665                 1.0                 0.0                 8.0
     21666                 0.5                 0.0                 8.0
     21667                 0.0                 0.0                 8.0
     21668                 0.0                 0.0                 7.0
     21669                 0.0                 0.0                 6.0
     21670                 0.0                 0.0                 5.0
     21671                 0.0                 0.0                 4.0
     21672                 0.0                 0.0                 3.0
     21673                 0.0                 0.0                 2.0
     21674                 0.0                 0.0                 1.0
# ... 241 like lines cut
#---1----|----2----|----3----|----4----|----5----|----6----|----7----|----8----|----9----|---10----|
/BRIC20/1
#  bric_ID  node_ID1  node_ID2  node_ID3  node_ID4  node_ID5  node_ID6  node_ID7  node_ID8
# node_ID9 node_ID10 node_ID11 node_ID12 node_ID13 node_ID14 node_ID15 node_ID16
#node_ID17 node_ID18 node_ID19 node_ID20
        17     21659     21658     21677     21676     21682     21683     21684     21685
     21746     21747     21819     21750     21752     21748     21822     21821
     21829     21835     21840     21830
        18     21682     21683     21684     21685     21686     21687     21688     21689
     21829     21835     21840     21830     21831     21837     21841     21844
     21847     21851     21855     21848
        19     21678     21676     21673     21672     21690     21685     21691     21692
     21820     21808     21803     21805     21823     21821     21810     21806
     21845     21846     21867     21863
        20     21690     21685     21691     21692     21693     21689     21694     21695
     21845     21846     21867     21863     21864     21844     21868     21873
     21860     21861     21882     21877
        21     21658     21657     21656     21677     21683     21696     21697     21684
     21744     21740     21742     21747     21748     21745     21743     21822
     21838     21888     21842     21835
        22     21683     21696     21697     21684     21687     21698     21699     21688
     21838     21888     21842     21835     21837     21889     21892     21841
     21853     21895     21857     21851
        23     21664     21663     21679     21681     21700     21701     21702     21703
     21769     21770     21825     21775     21776     21772     21826     21828
# ... 76 like lines cut
#---1----|----2----|----3----|----4----|----5----|----6----|----7----|----8----|----9----|---10----|
#-  1. PART:                                                                    
#---1----|----2----|----3----|----4----|----5----|----6----|----7----|----8----|----9----|---10----|
/PART/1
#part_title                                                                                         
beamPart                                                                                            
#  prop_ID    mat_ID                         Thick
         1         1                              
#---1----|----2----|----3----|----4----|----5----|----6----|----7----|----8----|----9----|---10----|
#-  2. MATERIAL DEFINITION:                                                                    
#---1----|----2----|----3----|----4----|----5----|----6----|----7----|----8----|----9----|---10----|
/MAT/ELAST/1
beamMaterial                                                                                        
#              RHO_I
              7800.0
#                  E                  nu
      210000000000.0                 0.3
#---1----|----2----|----3----|----4----|----5----|----6----|----7----|----8----|----9----|---10----|
#-  3. PROPERTIES DEFINITION:                                                                    
#---1----|----2----|----3----|----4----|----5----|----6----|----7----|----8----|----9----|---10----|
/PROP/SOLID/1
beamProperty                                                                                        
#   Isolid    Ismstr      Iale     Icpre  Itetra10     Inpts   Itetra4    Iframe                  Dn
        16         0         0         0         0         0         0         0                 0.0
#                 qa                  qb                   h              Lambda                  Mu
                 0.0                 0.0                 0.0                 0.0                 0.0
#         deltaT_min            Vdef_min            Vdef_max             ASP_max             COL_min
                 0.0                 0.0                 0.0                 0.0                 0.0
#---1----|----2----|----3----|----4----|----5----|----6----|----7----|----8----|----9----|---10----|
#-  4. BOUNDARY CONDITIONS:                                                                    
#---1----|----2----|----3----|----4----|----5----|----6----|----7----|----8----|----9----|---10----|
/BCS/1
fixedWallZ0                                                                                         
#  Tra rot   skew_ID  grnod_ID
   111 000         0         1
#---1----|----2----|----3----|----4----|----5----|----6----|----7----|----8----|----9----|---10----|
/GRNOD/NODE/1
#title                                                                                              
Z0                                                                                                  
# item_ID1  item_ID2  item_ID3  item_ID4  item_ID5  item_ID6  item_ID7  item_ID8  item_ID9 item_ID10
     21655     21656     21657     21696     21697     21698     21699     21730     21731     21736
     21739     21740     21743     21745     21888     21889     21892     21893     21895     21898
     21993
#---1----|----2----|----3----|----4----|----5----|----6----|----7----|----8----|----9----|---10----|
/BCS/2
fixedWallZ8                                                                                        
#  Tra rot   skew_ID  grnod_ID
   111 000         0         2
#---1----|----2----|----3----|----4----|----5----|----6----|----7----|----8----|----9----|---10----|
/GRNOD/NODE/2
#title                                                                                              
Z8                                                                                                  
# item_ID1  item_ID2  item_ID3  item_ID4  item_ID5  item_ID6  item_ID7  item_ID8  item_ID9 item_ID10
     21665     21666     21667     21718     21720     21721     21723     21732     21733     21778
     21780     21781     21783     21787     21962     21963     21965     21972     21974     21976
     21994
#---1----|----2----|----3----|----4----|----5----|----6----|----7----|----8----|----9----|---10----|
#-  5. LOADS:
#---1----|----2----|----3----|----4----|----5----|----6----|----7----|----8----|----9----|---10----|
/CLOAD/1
beamForce
#funct_IDT       Dir   skew_ID sensor_ID  grnod_ID                       Ascalex             Fscaley
         1         Y         0         0         3
#---1----|----2----|----3----|----4----|----5----|----6----|----7----|----8----|----9----|---10----|
/FUNCT/1
#title
curve1
#                  X                   Y
                 0.0              -0.001
                 0.5              -0.001
#---1----|----2----|----3----|----4----|----5----|----6----|----7----|----8----|----9----|---10----|
/GRNOD/NODE/3
#title                                                                                                                                                                                          
loadedNodes                                                                                         
# item_ID1  item_ID2  item_ID3  item_ID4  item_ID5  item_ID6  item_ID7  item_ID8  item_ID9 item_ID10
     21707     21918     21924     21929     21930
##--------------------------------------------------------------------------------------------------
## End Of Radioss Block Deck
##--------------------------------------------------------------------------------------------------
/END