#RADIOSS STARTER
##========================================================================================
##
## Radioss Input Deck Generated by HyperMesh Version  : 2026.0.0.27
## Generated using HyperMesh-Radioss Template Version : 2026.0.0.27-290296
## Date: 02-04-2026   Time: 10:18:37
##
##========================================================================================
##
##
/BEGIN
#Runname                                                                        
flap2D                                                                       
#   Invers      Irun
      2024         0
#    Input_mass_unit   Input_length_unit     Input_time_unit
                  kg                   m                   s
#     Work_mass_unit    Work_length_unit      Work_time_unit
                  kg                   m                   s
##
#---1----|----2----|----3----|----4----|----5----|----6----|----7----|----8----|----9----|---10----|
/NODE
#  node_ID                  Xc                  Yc                  Zc
      1154               -0.05                 1.0                 0.0
      1155               -0.05   0.941176470588235                 0.0
      1156               -0.05   0.882352941176471                 0.0
      1157               -0.05   0.823529411764706                 0.0
      1158               -0.05   0.764705882352941                 0.0
      1159               -0.05   0.705882352941176                 0.0
      1160               -0.05   0.647058823529412                 0.0
      1161               -0.05   0.588235294117647                 0.0
      1162               -0.05   0.529411764705882                 0.0
      1163               -0.05   0.470588235294118                 0.0
      1164               -0.05   0.411764705882353                 0.0
      1165               -0.05   0.352941176470588                 0.0
      1166               -0.05   0.294117647058823                 0.0
      1167               -0.05   0.235294117647059                 0.0
      1168               -0.05   0.176470588235294                 0.0
      1169               -0.05   0.117647058823529                 0.0
      1170               -0.05   0.058823529411765                 0.0
      1171               -0.05                 0.0                 0.0
      1172              -0.025                 0.0                 0.0
      1173-3.4694469519536E-18                 0.0                 0.0
# ... 70 like lines cut
#---1----|----2----|----3----|----4----|----5----|----6----|----7----|----8----|----9----|---10----|
/SHELL/1
# shell_ID  node_ID1  node_ID2  node_ID3  node_ID4                         phi_s               Thick
         1      1175      1176      1205      1174                                                  
         2      1174      1205      1206      1173                                                  
         3      1173      1206      1207      1172                                                  
         4      1172      1207      1170      1171                                                  
         5      1176      1177      1202      1205                                                  
         6      1205      1202      1203      1206                                                  
         7      1206      1203      1204      1207                                                  
         8      1207      1204      1169      1170                                                  
         9      1177      1178      1208      1202                                                  
        10      1202      1208      1209      1203                                                  
        11      1203      1209      1210      1204                                                  
        12      1204      1210      1168      1169                                                  
        13      1178      1179      1199      1208                                                  
        14      1208      1199      1200      1209                                                  
        15      1209      1200      1201      1210                                                  
        16      1210      1201      1167      1168                                                  
        17      1179      1180      1214      1199                                                  
        18      1199      1214      1215      1200                                                  
        19      1200      1215      1216      1201                                                  
        20      1201      1216      1166      1167                                                  
# ... 48 like lines cut
#---1----|----2----|----3----|----4----|----5----|----6----|----7----|----8----|----9----|---10----|
#-  1. PART:                                                                    
#---1----|----2----|----3----|----4----|----5----|----6----|----7----|----8----|----9----|---10----|
/PART/1
#part_title                                                                                         
beamPart                                                                                            
#  prop_ID    mat_ID                         Thick
         1         1                              
#---1----|----2----|----3----|----4----|----5----|----6----|----7----|----8----|----9----|---10----|
#-  2. MATERIAL DEFINITION:                                                                    
#---1----|----2----|----3----|----4----|----5----|----6----|----7----|----8----|----9----|---10----|
/MAT/ELAST/1
flapMaterial                                                                                        
#              RHO_I
              3000.0
#                  E                  nu
           4000000.0                 0.3
#---1----|----2----|----3----|----4----|----5----|----6----|----7----|----8----|----9----|---10----|
#-  3. PROPERTIES DEFINITION:
#---1----|----2----|----3----|----4----|----5----|----6----|----7----|----8----|----9----|---10----|                                                                    
/PROP/SHELL/1
flapProperty                                                                                        
#   Ishell    Ismstr     Ish3n    Idrill    Ipinch                  P_Thick_Fail
         0         0         0         0                                     0.0
#                 Hm                  Hf                  Hr                  Dm                  Dn
                0.01                0.01                0.01                 0.0                 0.0
#        N                         Thick              Ashear              Ithick     Iplas      Ipos
         0                           1.5                 0.0                   0         0          
#---1----|----2----|----3----|----4----|----5----|----6----|----7----|----8----|----9----|---10----|
#-  4. BOUNDARY CONDITIONS:                                                                    
#---1----|----2----|----3----|----4----|----5----|----6----|----7----|----8----|----9----|---10----|
/BCS/1
fixedWallZ0                                                                                         
#  Tra rot   skew_ID  grnod_ID
   111 000         0         1
#---1----|----2----|----3----|----4----|----5----|----6----|----7----|----8----|----9----|---10----|
/GRNOD/NODE/1
#title                                                                                              
fixedEnd                                                                                            
# item_ID1  item_ID2  item_ID3  item_ID4  item_ID5  item_ID6  item_ID7  item_ID8  item_ID9 item_ID10		
      1171      1172      1173      1174      1175
#---1----|----2----|----3----|----4----|----5----|----6----|----7----|----8----|----9----|---10----|
#-  5. INTERFACES:                                                                    
#---1----|----2----|----3----|----4----|----5----|----6----|----7----|----8----|----9----|---10----|
/GRNOD/NODE/2
#title                                                                                              
interface                                                                                           
# item_ID1  item_ID2  item_ID3  item_ID4  item_ID5  item_ID6  item_ID7  item_ID8  item_ID9 item_ID10
      1154      1155      1156      1157      1158      1159      1160      1161      1162      1163
      1164      1165      1166      1167      1168      1169      1170      1171      1175      1176
      1177      1178      1179      1180      1181      1182      1183      1184      1185      1186
      1187      1188      1189      1190      1191      1192      1193      1194      1195
##--------------------------------------------------------------------------------------------------
## End Of Radioss Block Deck
##--------------------------------------------------------------------------------------------------
/END