#RADIOSS STARTER
##========================================================================================
##
## Radioss Input Deck Generated by HyperMesh Version  : 2026.0.0.27
## Generated using HyperMesh-Radioss Template Version : 2026.0.0.27-290296
## Date: 02-04-2026   Time: 10:18:37
##
##========================================================================================
##
##
/BEGIN
#Runname                                                                        
flap2D                                                                       
#   Invers      Irun
      2024         0
#    Input_mass_unit   Input_length_unit     Input_time_unit
                  kg                   m                   s
#     Work_mass_unit    Work_length_unit      Work_time_unit
                  kg                   m                   s
##
#---1----|----2----|----3----|----4----|----5----|----6----|----7----|----8----|----9----|---10----|
/NODE
#  node_ID                  Xc                  Yc                  Zc
         1                0.05                 0.0                 0.0
         2                0.04                 0.0                 0.0
         3                0.03                 0.0                 0.0
         4                0.02                 0.0                 0.0
         5                0.01                 0.0                 0.0
         6                 0.0                 0.0                 0.0
         7               -0.01                 0.0                 0.0
         8               -0.02                 0.0                 0.0
         9               -0.03                 0.0                 0.0
        10               -0.04                 0.0                 0.0
        11               -0.05                 0.0                 0.0
        12               -0.05                0.01                 0.0
        13               -0.05                0.02                 0.0
        14               -0.05                0.03                 0.0
        15               -0.05                0.04                 0.0
        16               -0.05                0.05                 0.0
        17               -0.05                0.06                 0.0
        18               -0.05                0.07                 0.0
        19               -0.05                0.08                 0.0
        20               -0.05                0.09                 0.0
# ... 1091 like lines cut
#---1----|----2----|----3----|----4----|----5----|----6----|----7----|----8----|----9----|---10----|
/SHELL/1
# shell_ID  node_ID1  node_ID2  node_ID3  node_ID4                         phi_s               Thick
         1       221       120       121       122                                                  
         2       222       119       120       221                                                  
         3       223       118       119       222                                                  
         4       224       117       118       223                                                  
         5       225       116       117       224                                                  
         6       226       115       116       225                                                  
         7       227       114       115       226                                                  
         8       228       113       114       227                                                  
         9       229       112       113       228                                                  
        10       111       112       229       110                                                  
        11       230       221       122       123                                                  
        12       222       221       230       231                                                  
        13       232       223       222       231                                                  
        14       224       223       232       233                                                  
        15       234       225       224       233                                                  
        16       235       226       225       234                                                  
        17       236       227       226       235                                                  
        18       237       228       227       236                                                  
        19       238       229       228       237                                                  
        20       110       229       238       109                                                  
# ... 980 like lines cut
#---1----|----2----|----3----|----4----|----5----|----6----|----7----|----8----|----9----|---10----|
#-  1. PART:                                                                    
#---1----|----2----|----3----|----4----|----5----|----6----|----7----|----8----|----9----|---10----|
/PART/1
#part_title                                                                                         
beamPart                                                                                            
#  prop_ID    mat_ID                         Thick
         1         1                              
#---1----|----2----|----3----|----4----|----5----|----6----|----7----|----8----|----9----|---10----|
#-  2. MATERIAL DEFINITION:                                                                    
#---1----|----2----|----3----|----4----|----5----|----6----|----7----|----8----|----9----|---10----|
/MAT/ELAST/1
flapMaterial                                                                                        
#              RHO_I
              3000.0
#                  E                  nu
           4000000.0                 0.3
#---1----|----2----|----3----|----4----|----5----|----6----|----7----|----8----|----9----|---10----|
#-  3. PROPERTIES DEFINITION:
#---1----|----2----|----3----|----4----|----5----|----6----|----7----|----8----|----9----|---10----|                                                                    
/PROP/SHELL/1
flapProperty                                                                                        
#   Ishell    Ismstr     Ish3n    Idrill    Ipinch                  P_Thick_Fail
         0         0         0         0                                     0.0
#                 Hm                  Hf                  Hr                  Dm                  Dn
                0.01                0.01                0.01                 0.0                 0.0
#        N                         Thick              Ashear              Ithick     Iplas      Ipos
         0                           1.5                 0.0                   0         0          
#---1----|----2----|----3----|----4----|----5----|----6----|----7----|----8----|----9----|---10----|
#-  4. BOUNDARY CONDITIONS:                                                                    
#---1----|----2----|----3----|----4----|----5----|----6----|----7----|----8----|----9----|---10----|
/BCS/1
fixedWallZ0                                                                                         
#  Tra rot   skew_ID  grnod_ID
   111 000         0         1
#---1----|----2----|----3----|----4----|----5----|----6----|----7----|----8----|----9----|---10----|
/GRNOD/NODE/1
#title                                                                                              
fixedEnd                                                                                            
# item_ID1  item_ID2  item_ID3  item_ID4  item_ID5  item_ID6  item_ID7  item_ID8  item_ID9 item_ID10
         1         2         3         4         5         6         7         8         9        10
		11
#---1----|----2----|----3----|----4----|----5----|----6----|----7----|----8----|----9----|---10----|
#-  5. INTERFACES:                                                                    
#---1----|----2----|----3----|----4----|----5----|----6----|----7----|----8----|----9----|---10----|
/GRNOD/NODE/2
#title                                                                                              
interface                                                                                           
# item_ID1  item_ID2  item_ID3  item_ID4  item_ID5  item_ID6  item_ID7  item_ID8  item_ID9 item_ID10
        1        11        12        13        14        15        16        17        18         19
       20        21        22        23        24        25        26        27        28         29
	   30        31        32        33        34        35        36        37        38         39
	   40        41        42        43        44        45        46        47        48         49
	   50        51        52        53        54        55        56        57        58         59
	   60        61        62        63        64        65        66        67        68         69
	   70        71        72        73        74        75        76        77        78         79
	   80        81        91        92        93        94        95        96        97         98
	   99       100       101       102       103       104       105       106       107        108
      109       110       111       112       113       114       115       116       117        118
	  119       120       121       122       123       124       125       126       127        128
	  129       130       131       132       133       134       135       136       137        138
	  139       140       141       142       143       144       145       146       147        148
	  149       150       151       152       153       154       155       156       157        158
	  159       160       161       162       163       164       165       166       167        168
	  169       170       171       172       173       174       175       176       177        178
	  179       180       181       182       183       184       185       186       187        188
	  189       190       191       192       193       194       195       196       197        198
      199       200       201       202       203       204       205       206       207        208
	  209       210       211       212       213       214       215       216       217        218
	  219       220
##--------------------------------------------------------------------------------------------------
## End Of Radioss Block Deck
##--------------------------------------------------------------------------------------------------
/END