#RADIOSS STARTER
##========================================================================================
##
## Radioss Input Deck Generated by HyperMesh Version  : 2026.0.0.27
## Generated using HyperMesh-Radioss Template Version : 2026.0.0.27-290296
## Date: 02-20-2026   Time: 16:58:07
##
##========================================================================================
##
##
/BEGIN
#Runname                                                                        
pulsatingFlap
#   Invers      Irun
      2024         0
#    Input_mass_unit   Input_length_unit     Input_time_unit
                  kg                   m                   s
#     Work_mass_unit    Work_length_unit      Work_time_unit
                  kg                   m                   s
##
#---1----|----2----|----3----|----4----|----5----|----6----|----7----|----8----|----9----|---10----|
/NODE
#  node_ID                  Xc                  Yc                  Zc
      1117                0.57                 0.0                -0.3
      1118                0.57            0.021875                -0.3
      1119                0.57             0.04375                -0.3
      1120                0.57            0.065625                -0.3
      1121                0.57              0.0875                -0.3
      1122                0.57            0.109375                -0.3
      1123                0.57             0.13125                -0.3
      1124                0.57            0.153125                -0.3
      1125                0.57               0.175                -0.3
      1126                0.57            0.196875                -0.3
      1127                0.57             0.21875                -0.3
      1128                0.57            0.240625                -0.3
      1129                0.57              0.2625                -0.3
      1130                0.57            0.284375                -0.3
      1131                0.57             0.30625                -0.3
      1132                0.57            0.328125                -0.3
      1133                0.57                0.35                -0.3
      1134                0.57                0.35              -0.275
      1135                0.57                0.35               -0.25
      1136                0.57                0.35              -0.225
# ... 14477 like lines cut
#---1----|----2----|----3----|----4----|----5----|----6----|----7----|----8----|----9----|---10----|
/BRIC20/1
#  bric_ID  node_ID1  node_ID2  node_ID3  node_ID4  node_ID5  node_ID6  node_ID7  node_ID8
# node_ID9 node_ID10 node_ID11 node_ID12 node_ID13 node_ID14 node_ID15 node_ID16
#node_ID17 node_ID18 node_ID19 node_ID20
       385      1476      1169      1168      1505      1542      1543      1544      1545
      5181      5176      5178      6452      6453      5183      5179      6550
      6673      6678      6683      6674
       386      1542      1543      1544      1545      1546      1547      1548      1549
      6673      6678      6683      6674      6675      6679      6685      6688
      6691      6696      6702      6692
       387      1546      1547      1548      1549      1550      1551      1552      1553
      6691      6696      6702      6692      6693      6697      6704      6708
      6711      6716      6722      6712
       388      1550      1551      1552      1553      1554      1555      1556      1557
      6711      6716      6722      6712      6713      6717      6724      6728
      6731      6736      6742      6732
       389      1554      1555      1556      1557      1558      1559      1560      1561
      6731      6736      6742      6732      6733      6737      6744      6748
      6751      6756      6762      6752
       390      1558      1559      1560      1561      1562      1563      1564      1565
      6751      6756      6762      6752      6753      6757      6764      6768
      6771      6776      6782      6772
       391      1562      1563      1564      1565      1566      1567      1568      1569
      6771      6776      6782      6772      6773      6777      6784      6788
# ... 9196 like lines cut
#---1----|----2----|----3----|----4----|----5----|----6----|----7----|----8----|----9----|---10----|
#-  1. PART:                                                                    
#---1----|----2----|----3----|----4----|----5----|----6----|----7----|----8----|----9----|---10----|
/PART/1
#part_title                                                                                         
flapPart                                                                                            
#  prop_ID    mat_ID                         Thick
         1         1                              
#---1----|----2----|----3----|----4----|----5----|----6----|----7----|----8----|----9----|---10----|
#-  2. MATERIAL DEFINITION:                                                                    
#---1----|----2----|----3----|----4----|----5----|----6----|----7----|----8----|----9----|---10----|
/MAT/OGDEN/1
flapMaterial                                                                                           
#              RHO_I
                 250
#                 Nu           sigma_cut           funIDbulk         Fscale_bulk         M    I_form
                 0.4                   0                   0                   0         0         1  
#               Mu_1                Mu_2                Mu_3                Mu_4                Mu_5
            178.5714                   0                   
#               Mu_6                Mu_7                Mu_8                Mu_9               Mu_10
                   
#            alpha_1             alpha_2             alpha_3             alpha_4             alpha_5
                   2                   0                   
#            alpha_6             alpha_7             alpha_8             alpha_9            alpha_10
                   
#---1----|----2----|----3----|----4----|----5----|----6----|----7----|----8----|----9----|---10----|
#-  3. PROPERTIES DEFINITION:                                                                    
#---1----|----2----|----3----|----4----|----5----|----6----|----7----|----8----|----9----|---10----|
/PROP/SOLID/1
flapProperty                                                                                        
#   Isolid    Ismstr      Iale     Icpre  Itetra10     Inpts   Itetra4    Iframe                  Dn
        16         0         0         0         0         0         0         0                 0.0
#                 qa                  qb                   h              Lambda                  Mu
                 0.0                 0.0                 0.0                 0.0                 0.0
#         deltaT_min            Vdef_min            Vdef_max             ASP_max             COL_min
                 0.0                 0.0                 0.0                 0.0                 0.0
#---1----|----2----|----3----|----4----|----5----|----6----|----7----|----8----|----9----|---10----|
#-  4. BOUNDARY CONDITIONS:                                                                    
#---1----|----2----|----3----|----4----|----5----|----6----|----7----|----8----|----9----|---10----|
/BCS/1
fixedWallZ0                                                                                         
#  Tra rot   skew_ID  grnod_ID
   111 000         0         1
#---1----|----2----|----3----|----4----|----5----|----6----|----7----|----8----|----9----|---10----|
/GRNOD/NODE/1
#title                                                                                              
fixedEnd                                                                                            
# item_ID1  item_ID2  item_ID3  item_ID4  item_ID5  item_ID6  item_ID7  item_ID8  item_ID9 item_ID10
      1117      1173      1174      1175      1176      1177      1178      1179      1180      1181
      1182      1183      1184      1185      1186      1187      1188      1189      1190      1191
      1192      1193      1194      1195      1196      2262      2263      2266      2267      2270
      2271      2274      2275      2278      2279      2282      2283      2286      2287      2290
      2291      2950      2951      2952      2953      2954      2955      2956      2957      2958
      2959      2960      2961      2962      2963      2964      2965      3062      3063      3065
      3066      3068      3069      3071      3072      3074      3075      3077      3078      3080
      3081      3083      3084      3462      3463      3465      3466      3468      3469      3471
      3472      3474      3475      3477      3478      3480      3481      3483      3484      3510
      3511      3512      3513      3514      3515      3516      3517      4086      4087      4088
      4089      4090      4091      4092      4093      4094      4095      4096      4097      4098
      4099      4100      4101      4134      4135      4138      4139      4142      4143      4146
      4147      4150      4151      4154      4155      4158      4159      4162      4163      4446
      4447      4448      4449      4450      4451      4452      4453      4478      4480      4482
      4484      4486      4488      4490      4492      4598      4599      4600      4601      4602
      4603      4604      4605      4670      4671      4672      4673      4674      4675      4676
      4677      4694      4695      4696      4697      4698      4699      4700      4701      4726
      4727      4728      4729      4730      4731      4732      4733      4758      4759      4760
      4761      4762      4763      4764      4765      4886      4887      4888      4889      4890
      4891      4892      4893      4894      4895      4896      4897      4898      4899      4900
# ... 45 like lines cut
#---1----|----2----|----3----|----4----|----5----|----6----|----7----|----8----|----9----|---10----|
#-  5. INTERFACES:                                                                    
#---1----|----2----|----3----|----4----|----5----|----6----|----7----|----8----|----9----|---10----|
/GRNOD/NODE/2
#title                                                                                              
interface                                                                                           
# item_ID1  item_ID2  item_ID3  item_ID4  item_ID5  item_ID6  item_ID7  item_ID8  item_ID9 item_ID10
      1117      1118      1119      1120      1121      1122      1123      1124      1125      1126
      1127      1128      1129      1130      1131      1132      1133      1134      1135      1136
      1137      1138      1139      1140      1141      1142      1143      1144      1145      1146
      1147      1148      1149      1150      1151      1152      1153      1154      1155      1156
      1157      1158      1159      1160      1161      1162      1163      1164      1165      1166
      1167      1168      1169      1170      1171      1172      1173      1174      1175      1176
      1177      1178      1179      1180      1181      1182      1183      1184      1185      1186
      1187      1188      1189      1190      1191      1192      1193      1194      1195      1196
      1197      1198      1199      1200      1201      1202      1203      1204      1205      1206
      1207      1208      1209      1210      1211      1212      1213      1214      1215      1216
      1217      1218      1219      1220      1221      1222      1223      1224      1225      1226
      1227      1228      1229      1230      1231      1232      1233      1234      1235      1236
      1237      1238      1239      1240      1241      1242      1243      1244      1245      1246
      1247      1248      1249      1250      1251      1252      1253      1254      1255      1256
      1257      1258      1259      1260      1261      1262      1263      1264      1265      1266
      1267      1268      1269      1270      1271      1272      1273      1274      1275      1276
      1277      1278      1279      1280      1281      1282      1283      1284      1285      1286
      1287      1288      1289      1290      1291      1292      1293      1294      1295      1296
      1297      1298      1299      1300      1301      1302      1303      1304      1305      1306
      1307      1308      1309      1310      1311      1312      1313      1314      1315      1316
# ... 281 like lines cut
##--------------------------------------------------------------------------------------------------
## End Of Radioss Block Deck
##--------------------------------------------------------------------------------------------------
/END