#RADIOSS STARTER
##========================================================================================
##
## Radioss Input Deck Generated by HyperMesh Version  : 2026.0.0.27
## Generated using HyperMesh-Radioss Template Version : 2026.0.0.27-290296
## Date: 03-12-2026   Time: 23:50:24
##
##========================================================================================
##
##
/BEGIN
#Runname                                                                        
solid-openradioss                                                                             
#   Invers      Irun
      2024         0
#    Input_mass_unit   Input_length_unit     Input_time_unit
                  kg                   m                   s
#     Work_mass_unit    Work_length_unit      Work_time_unit
                  kg                   m                   s
##
#---1----|----2----|----3----|----4----|----5----|----6----|----7----|----8----|----9----|---10----|
/NODE
#  node_ID                  Xc                  Yc                  Zc
      3500                7.55                 0.0                 0.0
      3501                7.55   0.033333333333333-2.7755575615629E-17
      3502                7.55   0.0666666666666672.77555756156289E-17
      3503                7.55                 0.1                 0.0
      3504                7.55   0.133333333333333                 0.0
      3505                7.55   0.166666666666667                 0.0
      3506                7.55                 0.2                 0.0
      3507                7.55   0.233333333333333                 0.0
      3508                7.55   0.266666666666667                 0.0
      3509                7.55                 0.3                 0.0
      3510                7.55   0.333333333333333                 0.0
      3511                7.55   0.366666666666667                 0.0
      3512                7.55                 0.4                 0.0
      3513                7.55   0.433333333333334                 0.0
      3514                7.55   0.466666666666667                 0.0
      3515                7.55                 0.5                 0.0
      3516                7.55   0.533333333333333                 0.0
      3517                7.55   0.566666666666666                 0.0
      3518                7.55                 0.6                 0.0
      3519                7.55   0.633333333333333                 0.0
# ... 8551 like lines cut
#---1----|----2----|----3----|----4----|----5----|----6----|----7----|----8----|----9----|---10----|
/BRIC20/1
#  bric_ID  node_ID1  node_ID2  node_ID3  node_ID4  node_ID5  node_ID6  node_ID7  node_ID8
# node_ID9 node_ID10 node_ID11 node_ID12 node_ID13 node_ID14 node_ID15 node_ID16
#node_ID17 node_ID18 node_ID19 node_ID20
       361      3855      3677      3676      3856      3984      3985      3986      3987
      6844      6839      6841      7518      7522      6845      6842      7525
      7957      7962      7967      7958
       362      3984      3985      3986      3987      3988      3989      3990      3991
      7957      7962      7967      7958      7959      7963      7969      7972
      7975      7980      7986      7976
       363      3988      3989      3990      3991      3992      3993      3994      3995
      7975      7980      7986      7976      7977      7981      7988      7992
      7995      8000      8006      7996
       364      3992      3993      3994      3995      3996      3997      3998      3999
      7995      8000      8006      7996      7997      8001      8008      8012
      8015      8021      8024      8016
       365      3922      3710      3709      3912      4000      4001      4002      4003
      6977      6971      6972      7716      7752      6978      6974      7718
      8030      8035      8040      8031
       366      4000      4001      4002      4003      4004      4005      4006      4007
      8030      8035      8040      8031      8032      8036      8042      8045
      8048      8053      8059      8049
       367      4004      4005      4006      4007      4008      4009      4010      4011
      8048      8053      8059      8049      8050      8054      8061      8065
# ... 4300 like lines cut
#---1----|----2----|----3----|----4----|----5----|----6----|----7----|----8----|----9----|---10----|
#-  1. PART:                                                                    
#---1----|----2----|----3----|----4----|----5----|----6----|----7----|----8----|----9----|---10----|
/PART/1
#part_title                                                                                         
beamPart                                                                                            
#  prop_ID    mat_ID                         Thick
         1         1                              
#---1----|----2----|----3----|----4----|----5----|----6----|----7----|----8----|----9----|---10----|
#-  2. MATERIAL DEFINITION:                                                                    
#---1----|----2----|----3----|----4----|----5----|----6----|----7----|----8----|----9----|---10----|
/MAT/PLAS_JOHNS/1
aluminum_ElastoPlastic                                                                                           
#              RHO_I
              2700.0
#                  E                  Nu     Iflag        VP                Pmin
       70000000000.0                 0.3         0                              
#                  a                   b                   n           EPS_p_max            SIG_max0
         324000000.0         114000000.0                0.42                   0                   0  
#                  c           EPS_DOT_0       ICC   Fsmooth               F_cut               Chard
                   0                   0         0         0                   0                   0  
#                  m              T_melt              rhoC_p                 T_r
                   0                   0                   0                   0                                                             
#---1----|----2----|----3----|----4----|----5----|----6----|----7----|----8----|----9----|---10----|
#-  3. PROPERTIES DEFINITION:                                                                    
#---1----|----2----|----3----|----4----|----5----|----6----|----7----|----8----|----9----|---10----|
/PROP/SOLID/1
beamProperty                                                                                        
#   Isolid    Ismstr      Iale     Icpre  Itetra10     Inpts   Itetra4    Iframe                  Dn
        16         0         0         0         0         0         0         0                 0.0
#                 qa                  qb                   h              Lambda                  Mu
                 0.0                 0.0                 0.0                 0.0                 0.0
#         deltaT_min            Vdef_min            Vdef_max             ASP_max             COL_min
                 0.0                 0.0                 0.0                 0.0                 0.0
#---1----|----2----|----3----|----4----|----5----|----6----|----7----|----8----|----9----|---10----|
#-  4. BOUNDARY CONDITIONS:                                                                    
#---1----|----2----|----3----|----4----|----5----|----6----|----7----|----8----|----9----|---10----|
/BCS/1
fixedWallZ0                                                                                         
#  Tra rot   skew_ID  grnod_ID
   111 000         0         1
#---1----|----2----|----3----|----4----|----5----|----6----|----7----|----8----|----9----|---10----|
/GRNOD/NODE/1
#title                                                                                              
fixedEnd                                                                                              
# item_ID1  item_ID2  item_ID3  item_ID4  item_ID5  item_ID6  item_ID7  item_ID8  item_ID9 item_ID10
      3500      3743      3744      3745      5320      5321      5322      5323      5324      5325
      5326      5327      5668      5670      5672      5674      5712      5713      5714      5715
      5921      5923      7119      7120      7121      7124      7127     13147     13148     13150
     13153     13154     13156     13157     13160     13163     13165     13167     13168     13171
     13174     13176     13178     13180     13182     14058     14065     14073     14177     14178
     14179
#---1----|----2----|----3----|----4----|----5----|----6----|----7----|----8----|----9----|---10----|
/GRNOD/NODE/2
#title                                                                                              
interface
# item_ID1  item_ID2  item_ID3  item_ID4  item_ID5  item_ID6  item_ID7  item_ID8  item_ID9 item_ID10
      3500      3501      3502      3503      3504      3505      3506      3507      3508      3509
      3510      3511      3512      3513      3514      3515      3516      3517      3518      3519
      3520      3521      3522      3523      3524      3525      3526      3527      3528      3529
      3530      3531      3532      3533      3534      3535      3536      3537      3538      3539
      3540      3541      3542      3543      3544      3545      3546      3547      3548      3549
      3550      3551      3552      3553      3554      3555      3556      3557      3558      3559
      3560      3561      3562      3563      3564      3565      3566      3567      3568      3569
      3570      3571      3572      3573      3574      3575      3576      3577      3578      3579
      3580      3581      3582      3583      3584      3585      3586      3587      3588      3589
      3590      3591      3592      3593      3594      3595      3596      3597      3598      3599
      3600      3601      3602      3603      3604      3605      3606      3607      3608      3609
      3610      3611      3612      3613      3614      3615      3616      3617      3618      3619
      3620      3621      3622      3623      3624      3625      3626      3627      3628      3629
      3630      3631      3632      3633      3634      3635      3636      3637      3638      3639
      3640      3641      3642      3643      3644      3645      3646      3647      3648      3649
      3650      3651      3652      3653      3654      3655      3656      3657      3658      3659
      3660      3661      3662      3663      3664      3665      3666      3667      3668      3669
      3670      3671      3672      3673      3674      3675      3676      3677      3678      3679
      3680      3681      3682      3683      3684      3685      3686      3687      3688      3689
      3690      3691      3692      3693      3694      3695      3696      3697      3698      3699
# ... 250 like lines cut
##--------------------------------------------------------------------------------------------------
## End Of Radioss Block Deck
##--------------------------------------------------------------------------------------------------
/END