#RADIOSS STARTER
##========================================================================================
##
## Radioss Input Deck Generated by HyperMesh Version  : 2026.0.0.27
## Generated using HyperMesh-Radioss Template Version : 2026.0.0.27-290296
## Date: 03-10-2026   Time: 15:17:52
##
##========================================================================================
##
##
/BEGIN
#Runname                                                                        
solid-openradioss
#   Invers      Irun
      2024         0
#    Input_mass_unit   Input_length_unit     Input_time_unit
                  kg                   m                   s
#     Work_mass_unit    Work_length_unit      Work_time_unit
                  kg                   m                   s
##
#---1----|----2----|----3----|----4----|----5----|----6----|----7----|----8----|----9----|---10----|
/NODE
#  node_ID                  Xc                  Yc                  Zc
      3016                 7.4                 4.0                 0.0
      3017                 7.4                3.95                 0.0
      3018                 7.4                 3.9                 0.0
      3019                 7.4                3.85                 0.0
      3020                 7.4                 3.8                 0.0
      3021                 7.4                3.75                 0.0
      3022                 7.4                 3.7                 0.0
      3023                 7.4                3.65                 0.0
      3024                 7.4                 3.6                 0.0
      3025                 7.4                3.55                 0.0
      3026                 7.4                 3.5                 0.0
      3027                 7.4                3.45                 0.0
      3028                 7.4                 3.4                 0.0
      3029                 7.4                3.35                 0.0
      3030                 7.4                 3.3                 0.0
      3031                 7.4                3.25                 0.0
      3032                 7.4                 3.2                 0.0
      3033                 7.4                3.15                 0.0
      3034                 7.4                 3.1                 0.0
      3035                 7.4                3.05                 0.0
# ... 4500 like lines cut
#---1----|----2----|----3----|----4----|----5----|----6----|----7----|----8----|----9----|---10----|
/BRIC20/1
#  bric_ID  node_ID1  node_ID2  node_ID3  node_ID4  node_ID5  node_ID6  node_ID7  node_ID8
# node_ID9 node_ID10 node_ID11 node_ID12 node_ID13 node_ID14 node_ID15 node_ID16
#node_ID17 node_ID18 node_ID19 node_ID20
       241      3296      3155      3154      3284      3340      3341      3342      3343
      6474      6480      6479      5992      5948      6473      6477      5990
      5806      5802      5797      5805
       242      3340      3341      3342      3343      3344      3345      3346      3347
      5806      5802      5797      5805      5804      5801      5795      5791
      5788      5784      5778      5787
       243      3344      3345      3346      3347      3348      3349      3350      3351
      5788      5784      5778      5787      5786      5783      5776      5771
      5767      5764      5761      5766
       244      3284      3154      3153      3290      3343      3342      3352      3353
      6479      6483      6482      5994      5990      6477      6481      5967
      5797      5794      5750      5790
       245      3343      3342      3352      3353      3347      3346      3354      3355
      5797      5794      5750      5790      5791      5795      5749      5746
      5778      5774      5742      5770
       246      3347      3346      3354      3355      3351      3350      3356      3357
      5778      5774      5742      5770      5771      5776      5741      5738
      5761      5759      5735      5753
       247      3268      3269      3275      3273      3358      3359      3360      3361
      6043      6034      6024      6040      6038      6033      6020      6023
# ... 2140 like lines cut
#---1----|----2----|----3----|----4----|----5----|----6----|----7----|----8----|----9----|---10----|
#-  1. PART:                                                                    
#---1----|----2----|----3----|----4----|----5----|----6----|----7----|----8----|----9----|---10----|
/PART/1
#part_title                                                                                         
beamPart                                                                                            
#  prop_ID    mat_ID                         Thick
         1         1                              
#---1----|----2----|----3----|----4----|----5----|----6----|----7----|----8----|----9----|---10----|
#-  2. MATERIAL DEFINITION:                                                                    
#---1----|----2----|----3----|----4----|----5----|----6----|----7----|----8----|----9----|---10----|
/MAT/ELAST/1
beamMaterial                                                                                        
#              RHO_I
              2700.0
#                  E                  nu
       70000000000.0                 0.3
#---1----|----2----|----3----|----4----|----5----|----6----|----7----|----8----|----9----|---10----|
#-  3. PROPERTIES DEFINITION:                                                                    
#---1----|----2----|----3----|----4----|----5----|----6----|----7----|----8----|----9----|---10----|
/PROP/SOLID/1
beamProperty                                                                                        
#   Isolid    Ismstr      Iale     Icpre  Itetra10     Inpts   Itetra4    Iframe                  Dn
        16         0         0         0         0         0         0         0                 0.0
#                 qa                  qb                   h              Lambda                  Mu
                 0.0                 0.0                 0.0                 0.0                 0.0
#         deltaT_min            Vdef_min            Vdef_max             ASP_max             COL_min
                 0.0                 0.0                 0.0                 0.0                 0.0
#---1----|----2----|----3----|----4----|----5----|----6----|----7----|----8----|----9----|---10----|
#-  4. BOUNDARY CONDITIONS:                                                                    
#---1----|----2----|----3----|----4----|----5----|----6----|----7----|----8----|----9----|---10----|
/BCS/1
fixedWallZ0                                                                                         
#  Tra rot   skew_ID  grnod_ID
   111 000         0         1
#---1----|----2----|----3----|----4----|----5----|----6----|----7----|----8----|----9----|---10----|
/GRNOD/NODE/1
#title                                                                                              
fixedEnd                                                                                              
# item_ID1  item_ID2  item_ID3  item_ID4  item_ID5  item_ID6  item_ID7  item_ID8  item_ID9 item_ID10
      3099      3098      3097      3096      3989      3990      3992      3993      3995      3996
      4204      4205      4206      4207      4208      4209      6720      6722      6723      6725
      6726      6727      6729      8055      8057      8060      8061      8069      8071      8074
      8076      8081      8083      8700      8701      8704      8705      8706      8709      8710
#---1----|----2----|----3----|----4----|----5----|----6----|----7----|----8----|----9----|---10----|
/GRNOD/NODE/2
#title                                                                                              
interface
# item_ID1  item_ID2  item_ID3  item_ID4  item_ID5  item_ID6  item_ID7  item_ID8  item_ID9 item_ID10
      3705      3704      3703      3696      3695      3690      3689      3684      3683      3678
      3677      3676      3675      3666      3665      3664      3663      3654      3653      3652
      3651      3642      3641      3636      3635      3634      3633      3624      3623      3618
      3617      3612      3611      3610      3609      3600      3599      3598      3596      3595
      3593      3592      3591      3590      3589      3588      3579      3578      3577      3576
      3567      3566      3565      3564      3555      3554      3553      3552      3543      3542
      3541      3540      3531      3530      3529      3528      3519      3518      3517      3516
      3507      3506      3505      3504      3495      3494      3493      3492      3483      3482
      3481      3480      3471      3470      3469      3462      3461      3460      3459      3450
      3449      3448      3447      3438      3437      3436      3435      3426      3425      3424
      3423      3414      3413      3412      3411      3402      3401      3400      3399      3390
      3389      3388      3381      3380      3379      3378      3369      3368      3367      3366
      3357      3356      3351      3350      3349      3348      3339      3338      3337      3336
      3335      3334      3333      3332      3331      3330      3329      3328      3327      3326
      3325      3324      3323      3322      3321      3320      3319      3318      3317      3316
      3315      3314      3313      3312      3311      3310      3309      3308      3307      3306
      3305      3304      3303      3302      3301      3300      3299      3298      3297      3296
      3295      3294      3293      3292      3291      3290      3289      3288      3287      3286
      3285      3284      3283      3282      3281      3280      3279      3278      3277      3276
      3275      3274      3273      3272      3271      3270      3269      3268      3267      3266
# ... 160 like lines cut
##--------------------------------------------------------------------------------------------------
## End Of Radioss Block Deck
##--------------------------------------------------------------------------------------------------
/END