#RADIOSS STARTER
##========================================================================================
##
## Radioss Input Deck Generated by HyperMesh Version  : 2026.0.0.27
## Generated using HyperMesh-Radioss Template Version : 2026.0.0.27-290296
## Date: 03-10-2026   Time: 14:43:11
##
##========================================================================================
##
##
/BEGIN
#Runname                                                                        
solid-openradioss                                                               
#   Invers      Irun
      2024         0
#    Input_mass_unit   Input_length_unit     Input_time_unit
                  kg                   m                   s
#     Work_mass_unit    Work_length_unit      Work_time_unit
                  kg                   m                   s
##
#---1----|----2----|----3----|----4----|----5----|----6----|----7----|----8----|----9----|---10----|
/NODE
#  node_ID                  Xc                  Yc                  Zc
      3016                7.55                 0.0                 0.0
      3017                7.55                0.05                 0.0
      3018                7.55                 0.1                 0.0
      3019                7.55                0.15                 0.0
      3020                7.55                 0.2                 0.0
      3021                7.55                0.25                 0.0
      3022                7.55                 0.3                 0.0
      3023                7.55                0.352.77555756156289E-17
      3024                7.55                 0.4                 0.0
      3025                7.55                0.452.77555756156289E-17
      3026                7.55                 0.5                 0.0
      3027                7.55                0.55                 0.0
      3028                7.55                 0.6                 0.0
      3029                7.55                0.65                 0.0
      3030                7.55                 0.7-2.7755575615629E-17
      3031                7.55                0.75                 0.0
      3032                7.55                 0.8                 0.0
      3033                7.55                0.85                 0.0
      3034                7.55                 0.9-2.7755575615629E-17
      3035                7.55                0.95                 0.0
# ... 4500 like lines cut
#---1----|----2----|----3----|----4----|----5----|----6----|----7----|----8----|----9----|---10----|
/BRIC20/1
#  bric_ID  node_ID1  node_ID2  node_ID3  node_ID4  node_ID5  node_ID6  node_ID7  node_ID8
# node_ID9 node_ID10 node_ID11 node_ID12 node_ID13 node_ID14 node_ID15 node_ID16
#node_ID17 node_ID18 node_ID19 node_ID20
       241      3323      3322      3328      3330      3340      3341      3342      3343
      5602      5603      5628      5609      5612      5607      5630      5635
      5661      5666      5670      5662
       242      3340      3341      3342      3343      3344      3345      3346      3347
      5661      5666      5670      5662      5663      5667      5671      5674
      5677      5682      5686      5678
       243      3344      3345      3346      3347      3348      3349      3350      3351
      5677      5682      5686      5678      5679      5683      5687      5690
      5693      5700      5705      5694
       244      3284      3154      3153      3290      3352      3353      3354      3355
      4991      4987      4988      5474      5478      4993      4989      5501
      5714      5719      5724      5715
       245      3352      3353      3354      3355      3356      3357      3358      3359
      5714      5719      5724      5715      5716      5720      5726      5729
      5732      5737      5743      5733
       246      3356      3357      3358      3359      3360      3361      3362      3363
      5732      5737      5743      5733      5734      5738      5745      5749
      5752      5759      5763      5753
       247      3268      3269      3275      3273      3364      3365      3366      3367
      5425      5434      5444      5428      5430      5435      5448      5445
# ... 2140 like lines cut
#---1----|----2----|----3----|----4----|----5----|----6----|----7----|----8----|----9----|---10----|
#-  1. PART:                                                                    
#---1----|----2----|----3----|----4----|----5----|----6----|----7----|----8----|----9----|---10----|
/PART/1
#part_title                                                                                         
beamPart                                                                                            
#  prop_ID    mat_ID                         Thick
         1         1                              
#---1----|----2----|----3----|----4----|----5----|----6----|----7----|----8----|----9----|---10----|
#-  2. MATERIAL DEFINITION:                                                                    
#---1----|----2----|----3----|----4----|----5----|----6----|----7----|----8----|----9----|---10----|
/MAT/ELAST/1
beamMaterial                                                                                        
#              RHO_I
              2700.0
#                  E                  nu
       70000000000.0                 0.3
#---1----|----2----|----3----|----4----|----5----|----6----|----7----|----8----|----9----|---10----|
#-  3. PROPERTIES DEFINITION:                                                                    
#---1----|----2----|----3----|----4----|----5----|----6----|----7----|----8----|----9----|---10----|
/PROP/SOLID/1
beamProperty                                                                                        
#   Isolid    Ismstr      Iale     Icpre  Itetra10     Inpts   Itetra4    Iframe                  Dn
        16         0         0         0         0         0         0         0                 0.0
#                 qa                  qb                   h              Lambda                  Mu
                 0.0                 0.0                 0.0                 0.0                 0.0
#         deltaT_min            Vdef_min            Vdef_max             ASP_max             COL_min
                 0.0                 0.0                 0.0                 0.0                 0.0
#---1----|----2----|----3----|----4----|----5----|----6----|----7----|----8----|----9----|---10----|
#-  4. BOUNDARY CONDITIONS:                                                                    
#---1----|----2----|----3----|----4----|----5----|----6----|----7----|----8----|----9----|---10----|
/BCS/1
fixedWallZ0                                                                                         
#  Tra rot   skew_ID  grnod_ID
   111 000         0         1
#---1----|----2----|----3----|----4----|----5----|----6----|----7----|----8----|----9----|---10----|
/GRNOD/NODE/1
#title                                                                                              
fixedEnd                                                                                              
# item_ID1  item_ID2  item_ID3  item_ID4  item_ID5  item_ID6  item_ID7  item_ID8  item_ID9 item_ID10
      3016      3179      3180      3181      3574      3575      3578      3579      3582      3583
      4264      4265      4266      4270      4272      4274      4313      4315      5102      5104
      5105      5108      5111      6670      6672      6674      6678      6679      6688      6690
      6693      6697      6699      6708      6711      6715      8804      8805      8809      8816
#---1----|----2----|----3----|----4----|----5----|----6----|----7----|----8----|----9----|---10----|
/GRNOD/NODE/2
#title                                                                                              
interface                                                                                           
# item_ID1  item_ID2  item_ID3  item_ID4  item_ID5  item_ID6  item_ID7  item_ID8  item_ID9 item_ID10
      3016      3017      3018      3019      3020      3021      3022      3023      3024      3025
      3026      3027      3028      3029      3030      3031      3032      3033      3034      3035
      3036      3037      3038      3039      3040      3041      3042      3043      3044      3045
      3046      3047      3048      3049      3050      3051      3052      3053      3054      3055
      3056      3057      3058      3059      3060      3061      3062      3063      3064      3065
      3066      3067      3068      3069      3070      3071      3072      3073      3074      3075
      3076      3077      3078      3079      3080      3081      3082      3083      3084      3085
      3086      3087      3088      3089      3090      3091      3092      3093      3094      3095
      3096      3097      3098      3099      3100      3101      3102      3103      3104      3105
      3106      3107      3108      3109      3110      3111      3112      3113      3114      3115
      3116      3117      3118      3119      3120      3121      3122      3123      3124      3125
      3126      3127      3128      3129      3130      3131      3132      3133      3134      3135
      3136      3137      3138      3139      3140      3141      3142      3143      3144      3145
      3146      3147      3148      3149      3150      3151      3152      3153      3154      3155
      3156      3157      3158      3159      3160      3161      3162      3163      3164      3165
      3166      3167      3168      3169      3170      3171      3172      3173      3174      3175
      3176      3177      3178      3179      3180      3181      3182      3183      3184      3185
      3186      3187      3188      3189      3190      3191      3192      3193      3194      3195
      3196      3197      3198      3199      3200      3201      3202      3203      3204      3205
      3206      3207      3208      3209      3210      3211      3212      3213      3214      3215
# ... 160 like lines cut
##--------------------------------------------------------------------------------------------------
## End Of Radioss Block Deck
##--------------------------------------------------------------------------------------------------
/END