#RADIOSS STARTER
##========================================================================================
##
## Radioss Input Deck Generated by HyperMesh Version  : 2026.0.0.27
## Generated using HyperMesh-Radioss Template Version : 2026.0.0.27-290296
## Date: 03-14-2026   Time: 12:10:51
##
##========================================================================================
##
##
/BEGIN
#Runname                                                                        
solid-openradioss
#   Invers      Irun
      2024         0
#    Input_mass_unit   Input_length_unit     Input_time_unit
                  kg                   m                   s
#     Work_mass_unit    Work_length_unit      Work_time_unit
                  kg                   m                   s
##
#---1----|----2----|----3----|----4----|----5----|----6----|----7----|----8----|----9----|---10----|
/NODE
#  node_ID                  Xc                  Yc                  Zc
      3016                 7.4                 4.0                 0.0
      3017                 7.4                3.95                 0.0
      3018                 7.4                 3.9                 0.0
      3019                 7.4                3.85                 0.0
      3020                 7.4                 3.8                 0.0
      3021                 7.4                3.75                 0.0
      3022                 7.4                 3.7                 0.0
      3023                 7.4                3.65                 0.0
      3024                 7.4                 3.6                 0.0
      3025                 7.4                3.55                 0.0
      3026                 7.4                 3.5                 0.0
      3027                 7.4                3.45                 0.0
      3028                 7.4                 3.4                 0.0
      3029                 7.4                3.35                 0.0
      3030                 7.4                 3.3                 0.0
      3031                 7.4                3.25                 0.0
      3032                 7.4                 3.2                 0.0
      3033                 7.4                3.15                 0.0
      3034                 7.4                 3.1                 0.0
      3035                 7.4                3.05                 0.0
# ... 8133 like lines cut
#---1----|----2----|----3----|----4----|----5----|----6----|----7----|----8----|----9----|---10----|
/BRIC20/1
#  bric_ID  node_ID1  node_ID2  node_ID3  node_ID4  node_ID5  node_ID6  node_ID7  node_ID8
# node_ID9 node_ID10 node_ID11 node_ID12 node_ID13 node_ID14 node_ID15 node_ID16
#node_ID17 node_ID18 node_ID19 node_ID20
       241      3296      3155      3154      3284      3340      3341      3342      3343
      7527      7533      7532      7045      7001      7526      7530      7043
      6859      6855      6850      6858
       242      3340      3341      3342      3343      3344      3345      3346      3347
      6859      6855      6850      6858      6857      6854      6848      6844
      6841      6837      6831      6840
       243      3344      3345      3346      3347      3348      3349      3350      3351
      6841      6837      6831      6840      6839      6836      6829      6824
      6821      6817      6811      6820
       244      3348      3349      3350      3351      3352      3353      3354      3355
      6821      6817      6811      6820      6819      6816      6809      6804
      6801      6797      6791      6800
       245      3352      3353      3354      3355      3356      3357      3358      3359
      6801      6797      6791      6800      6799      6796      6789      6784
      6781      6777      6771      6780
       246      3356      3357      3358      3359      3360      3361      3362      3363
      6781      6777      6771      6780      6779      6776      6769      6764
      6760      6757      6754      6759
       247      3284      3154      3153      3290      3343      3342      3364      3365
      7532      7536      7535      7047      7043      7530      7534      7020
# ... 4300 like lines cut
#---1----|----2----|----3----|----4----|----5----|----6----|----7----|----8----|----9----|---10----|
#-  1. PART:                                                                    
#---1----|----2----|----3----|----4----|----5----|----6----|----7----|----8----|----9----|---10----|
/PART/1
#part_title                                                                                         
flapPart                                                                                            
#  prop_ID    mat_ID                         Thick
         1         1                              
#---1----|----2----|----3----|----4----|----5----|----6----|----7----|----8----|----9----|---10----|
#-  2. MATERIAL DEFINITION:                                                                    
#---1----|----2----|----3----|----4----|----5----|----6----|----7----|----8----|----9----|---10----|
/MAT/OGDEN/1
flapMaterial                                                                                           
#              RHO_I
                1020
#                 Nu           sigma_cut           funIDbulk         Fscale_bulk         M    I_form
                0.49                   0                   0                   0         0         1  
#               Mu_1                Mu_2                Mu_3                Mu_4                Mu_5
           2440000.0          -2408000.0                   
#               Mu_6                Mu_7                Mu_8                Mu_9               Mu_10
                  
#            alpha_1             alpha_2             alpha_3             alpha_4             alpha_5
                   2                  -2                   
#            alpha_6             alpha_7             alpha_8             alpha_9            alpha_10
                   
#---1----|----2----|----3----|----4----|----5----|----6----|----7----|----8----|----9----|---10----|
#-  3. PROPERTIES DEFINITION:                                                                    
#---1----|----2----|----3----|----4----|----5----|----6----|----7----|----8----|----9----|---10----|
/PROP/SOLID/1
flapProperty                                                                                        
#   Isolid    Ismstr      Iale     Icpre  Itetra10     Inpts   Itetra4    Iframe                  Dn
        16         0         0         0         0         0         0         0                 0.0
#                 qa                  qb                   h              Lambda                  Mu
                 0.0                 0.0                 0.0                 0.0                 0.0
#         deltaT_min            Vdef_min            Vdef_max             ASP_max             COL_min
                 0.0                 0.0                 0.0                 0.0                 0.0
#---1----|----2----|----3----|----4----|----5----|----6----|----7----|----8----|----9----|---10----|
#-  4. BOUNDARY CONDITIONS:                                                                    
#---1----|----2----|----3----|----4----|----5----|----6----|----7----|----8----|----9----|---10----|
/BCS/1
fixedWallZ0                                                                                         
#  Tra rot   skew_ID  grnod_ID
   111 000         0         1
#---1----|----2----|----3----|----4----|----5----|----6----|----7----|----8----|----9----|---10----|
/GRNOD/NODE/1
#title                                                                                              
fixedEnd
# item_ID1  item_ID2  item_ID3  item_ID4  item_ID5  item_ID6  item_ID7  item_ID8  item_ID9 item_ID10
      3099      3098      3097      3096      4637      4638      4640      4641      4643      4644
      4646      4647      4649      4650      4652      4653      5068      5069      5070      5071
      5072      5073      5074      5075      5076      5077      5078      5079      7773      7775
      7776      7778      7779      7780      7782     11658     11660     11663     11664     11672
     11674     11677     11679     11687     11689     11692     11694     11702     11704     11707
     11709     11717     11719     11722     11724     11729     11731     13101     13102     13105
     13106     13107     13110     13111     13112     13115     13116     13117     13120     13121
     13122     13125     13126
#---1----|----2----|----3----|----4----|----5----|----6----|----7----|----8----|----9----|---10----|
#-  5. INTERFACES:                                                                    
#---1----|----2----|----3----|----4----|----5----|----6----|----7----|----8----|----9----|---10----|
/GRNOD/NODE/2
#title                                                                                              
interface
# item_ID1  item_ID2  item_ID3  item_ID4  item_ID5  item_ID6  item_ID7  item_ID8  item_ID9 item_ID10
      3699      3698      3697      3696      3675      3674      3673      3672      3651      3650
      3649      3648      3627      3626      3625      3624      3603      3602      3601      3585
      3584      3583      3582      3561      3560      3559      3558      3537      3536      3535
      3534      3513      3512      3511      3510      3489      3488      3487      3486      3465
      3464      3463      3462      3441      3440      3439      3423      3422      3421      3420
      3399      3398      3397      3396      3375      3374      3363      3362      3361      3360
      3339      3338      3337      3336      3335      3334      3333      3332      3331      3330
      3329      3328      3327      3326      3325      3324      3323      3322      3321      3320
      3319      3318      3317      3316      3315      3314      3313      3312      3311      3310
      3309      3308      3307      3306      3305      3304      3303      3302      3301      3300
      3299      3298      3297      3296      3295      3294      3293      3292      3291      3290
      3289      3288      3287      3286      3285      3284      3283      3282      3281      3280
      3279      3278      3277      3276      3275      3274      3273      3272      3271      3270
      3269      3268      3267      3266      3265      3264      3263      3262      3261      3260
      3259      3258      3257      3256      3255      3254      3253      3252      3251      3250
      3249      3248      3247      3246      3245      3244      3243      3242      3241      3240
      3239      3238      3237      3236      3235      3234      3233      3232      3231      3230
      3229      3228      3227      3226      3225      3224      3223      3222      3221      3220
      3219      3218      3217      3216      3215      3214      3213      3212      3211      3210
      3209      3208      3207      3206      3205      3204      3203      3202      3201      3200
# ... 164 like lines cut
##--------------------------------------------------------------------------------------------------
## End Of Radioss Block Deck
##--------------------------------------------------------------------------------------------------
/END