#RADIOSS STARTER
##========================================================================================
##
## Radioss Input Deck Generated by HyperMesh Version  : 2026.0.0.27
## Generated using HyperMesh-Radioss Template Version : 2026.0.0.27-290296
## Date: 03-14-2026   Time: 12:13:14
##
##========================================================================================
##
##
/BEGIN
#Runname                                                                        
solid-openradioss
#   Invers      Irun
      2024         0
#    Input_mass_unit   Input_length_unit     Input_time_unit
                  kg                   m                   s
#     Work_mass_unit    Work_length_unit      Work_time_unit
                  kg                   m                   s
##
#---1----|----2----|----3----|----4----|----5----|----6----|----7----|----8----|----9----|---10----|
/NODE
#  node_ID                  Xc                  Yc                  Zc
      3016                 7.4                 4.0                 0.0
      3017                 7.4               3.975                 0.0
      3018                 7.4                3.95                 0.0
      3019                 7.4               3.925                 0.0
      3020                 7.4                 3.9                 0.0
      3021                 7.4               3.875                 0.0
      3022                 7.4                3.85                 0.0
      3023                 7.4               3.825                 0.0
      3024                 7.4                 3.8                 0.0
      3025                 7.4               3.775                 0.0
      3026                 7.4                3.75                 0.0
      3027                 7.4               3.725                 0.0
      3028                 7.4                 3.7                 0.0
      3029                 7.4               3.675                 0.0
      3030                 7.4                3.65                 0.0
      3031                 7.4               3.625                 0.0
      3032                 7.4                 3.6                 0.0
      3033                 7.4               3.575                 0.0
      3034                 7.4                3.55                 0.0
      3035                 7.4               3.525                 0.0
# ... 30679 like lines cut
#---1----|----2----|----3----|----4----|----5----|----6----|----7----|----8----|----9----|---10----|
/BRIC20/1
#  bric_ID  node_ID1  node_ID2  node_ID3  node_ID4  node_ID5  node_ID6  node_ID7  node_ID8
# node_ID9 node_ID10 node_ID11 node_ID12 node_ID13 node_ID14 node_ID15 node_ID16
#node_ID17 node_ID18 node_ID19 node_ID20
       481      3139      3422      3423      3140      3660      3661      3662      3663
     29918     28745     29911     29920     29916     28744     28743     29909
     27924     27918     27912     27923
       482      3660      3661      3662      3663      3664      3665      3666      3667
     27924     27918     27912     27923     27922     27917     27911     27907
     27906     27899     27893     27905
       483      3664      3665      3666      3667      3668      3669      3670      3671
     27906     27899     27893     27905     27904     27898     27892     27887
     27886     27879     27873     27885
       484      3668      3669      3670      3671      3672      3673      3674      3675
     27886     27879     27873     27885     27884     27878     27872     27867
     27866     27859     27853     27865
       485      3672      3673      3674      3675      3676      3677      3678      3679
     27866     27859     27853     27865     27864     27858     27852     27847
     27846     27839     27833     27845
       486      3676      3677      3678      3679      3680      3681      3682      3683
     27846     27839     27833     27845     27844     27838     27832     27827
     27826     27819     27813     27825
       487      3680      3681      3682      3683      3684      3685      3686      3687
     27826     27819     27813     27825     27824     27818     27812     27807
# ... 17260 like lines cut
#---1----|----2----|----3----|----4----|----5----|----6----|----7----|----8----|----9----|---10----|
#-  1. PART:                                                                    
#---1----|----2----|----3----|----4----|----5----|----6----|----7----|----8----|----9----|---10----|
/PART/1
#part_title                                                                                         
flapPart                                                                                            
#  prop_ID    mat_ID                         Thick
         1         1                              
#---1----|----2----|----3----|----4----|----5----|----6----|----7----|----8----|----9----|---10----|
#-  2. MATERIAL DEFINITION:                                                                    
#---1----|----2----|----3----|----4----|----5----|----6----|----7----|----8----|----9----|---10----|
/MAT/OGDEN/1
flapMaterial                                                                                           
#              RHO_I
                1020
#                 Nu           sigma_cut           funIDbulk         Fscale_bulk         M    I_form
                0.49                   0                   0                   0         0         1  
#               Mu_1                Mu_2                Mu_3                Mu_4                Mu_5
           3616000.0          -3562000.0                   
#               Mu_6                Mu_7                Mu_8                Mu_9               Mu_10
                  
#            alpha_1             alpha_2             alpha_3             alpha_4             alpha_5
                   2                  -2                   
#            alpha_6             alpha_7             alpha_8             alpha_9            alpha_10
                   
#---1----|----2----|----3----|----4----|----5----|----6----|----7----|----8----|----9----|---10----|
#-  3. PROPERTIES DEFINITION:                                                                    
#---1----|----2----|----3----|----4----|----5----|----6----|----7----|----8----|----9----|---10----|
/PROP/SOLID/1
flapProperty                                                                                        
#   Isolid    Ismstr      Iale     Icpre  Itetra10     Inpts   Itetra4    Iframe                  Dn
        16         0         0         0         0         0         0         0                 0.0
#                 qa                  qb                   h              Lambda                  Mu
                 0.0                 0.0                 0.0                 0.0                 0.0
#         deltaT_min            Vdef_min            Vdef_max             ASP_max             COL_min
                 0.0                 0.0                 0.0                 0.0                 0.0
#---1----|----2----|----3----|----4----|----5----|----6----|----7----|----8----|----9----|---10----|
#-  4. BOUNDARY CONDITIONS:                                                                    
#---1----|----2----|----3----|----4----|----5----|----6----|----7----|----8----|----9----|---10----|
/BCS/1
fixedWallZ0                                                                                         
#  Tra rot   skew_ID  grnod_ID
   111 000         0         1
#---1----|----2----|----3----|----4----|----5----|----6----|----7----|----8----|----9----|---10----|
/GRNOD/NODE/1
#title                                                                                              
fixedEnd                                                                                            
# item_ID1  item_ID2  item_ID3  item_ID4  item_ID5  item_ID6  item_ID7  item_ID8  item_ID9 item_ID10
      4703      4702      4699      4698      4695      4694      4691      4690      4687      4686
      4683      4682      4679      4678      4675      4674      4671      4670      4667      4666
      4663      4662      4659      4658      3179      3178      3177      3176      8017      8019
      8021      8023      8025      8027      8029      8031      8033      8035      8037      8039
     11364     11365     11366     11367     11368     11369     11370     11371     11372     11373
     11374     11375     23266     23267     23270     23283     23286     23289     23290     23292
     23303     23306     23309     23310     23312     23323     23326     23329     23330     23332
     23343     23346     23349     23350     23352     23363     23366     23369     23370     23372
     23383     23386     23389     23390     23392     23403     23406     23409     23410     23412
     23423     23426     23429     23430     23432     23443     23446     23449     23450     23452
     23463     23466     23469     23470     23472     23483     23485     23488     23489     23490
     29691     29692     29694     29696     29698     29699     29701     32133     32141     32149
     32157     32165     32173     32181     32189     32197     32205     32213     42249     42250
     42251     42252     42253     42254     42255     42256     42257     42258     42259
#---1----|----2----|----3----|----4----|----5----|----6----|----7----|----8----|----9----|---10----|
#-  5. INTERFACES:                                                                    
#---1----|----2----|----3----|----4----|----5----|----6----|----7----|----8----|----9----|---10----|
/GRNOD/NODE/2
#title                                                                                              
interface                                                                                           
# item_ID1  item_ID2  item_ID3  item_ID4  item_ID5  item_ID6  item_ID7  item_ID8  item_ID9 item_ID10
      7607      7606      7605      7604      7559      7558      7535      7534      7511      7499
      7498      7475      7474      7473      7439      7438      7415      7414      7413      7412
      7367      7355      7354      7353      7352      7307      7306      7305      7271      7270
      7247      7246      7245      7244      7199      7198      7175      7174      7173      7172
      7127      7126      7125      7091      7090      7089      7088      7043      7042      7019
      7018      7017      7016      6971      6970      6969      6935      6934      6933      6899
      6898      6875      6874      6873      6872      6827      6826      6825      6791      6790
      6789      6788      6743      6742      6719      6718      6695      6694      6693      6692
      6647      6646      6645      6611      6610      6609      6608      6563      6562      6561
      6560      6515      6514      6513      6479      6478      6455      6454      6453      6452
      6407      6406      6405      6404      6359      6358      6357      6356      6311      6310
      6309      6308      6263      6262      6261      6260      6215      6214      6191      6190
      6189      6155      6154      6153      6152      6107      6106      6083      6082      6081
      6080      6035      6034      6033      6032      5987      5986      5985      5984      5939
      5938      5937      5903      5902      5901      5867      5866      5865      5864      5819
      5818      5817      5816      5771      5770      5769      5768      5723      5722      5721
      5720      5675      5674      5651      5650      5649      5648      5603      5602      5601
      5600      5555      5554      5553      5552      5507      5506      5483      5482      5459
      5458      5457      5456      5411      5410      5387      5386      5385      5384      5339
      5338      5337      5303      5302      5301      5300      5255      5254      5253      5252
# ... 346 like lines cut
##--------------------------------------------------------------------------------------------------
## End Of Radioss Block Deck
##--------------------------------------------------------------------------------------------------
/END