#RADIOSS STARTER
##========================================================================================
##
## Radioss Input Deck Generated by HyperMesh Version  : 2026.0.0.27
## Generated using HyperMesh-Radioss Template Version : 2026.0.0.27-290296
## Date: 02-26-2026   Time: 12:38:37
##
##========================================================================================
##
##
/BEGIN
#Runname                                                                        
solid-openradioss                                                               
#   Invers      Irun
      2024         0
#    Input_mass_unit   Input_length_unit     Input_time_unit
                  kg                   m                   s
#     Work_mass_unit    Work_length_unit      Work_time_unit
                  kg                   m                   s
##
#---1----|----2----|----3----|----4----|----5----|----6----|----7----|----8----|----9----|---10----|
/NODE
#  node_ID                  Xc                  Yc                  Zc
      3140                 7.4                 4.0                 0.0
      3141                 7.4    3.86666666666667                 0.0
      3142                 7.4    3.73333333333333                 0.0
      3143                 7.4                 3.6                 0.0
      3144                 7.4    3.46666666666667                 0.0
      3145                 7.4    3.33333333333333                 0.0
      3146                 7.4                 3.2                 0.0
      3147                 7.4    3.06666666666667                 0.0
      3148                 7.4    2.93333333333333                 0.0
      3149                 7.4                 2.8                 0.0
      3150                 7.4    2.66666666666667                 0.0
      3151                 7.4    2.53333333333333                 0.0
      3152                 7.4                 2.4                 0.0
      3153                 7.4    2.26666666666667                 0.0
      3154                 7.4    2.13333333333333                 0.0
      3155                 7.4                 2.0                 0.0
      3156                 7.4    1.86666666666667                 0.0
      3157                 7.4    1.73333333333333                 0.0
      3158                 7.4                 1.6                 0.0
      3159                 7.4    1.46666666666667                 0.0
# ... 1700 like lines cut
#---1----|----2----|----3----|----4----|----5----|----6----|----7----|----8----|----9----|---10----|
/BRIC20/1
#  bric_ID  node_ID1  node_ID2  node_ID3  node_ID4  node_ID5  node_ID6  node_ID7  node_ID8
# node_ID9 node_ID10 node_ID11 node_ID12 node_ID13 node_ID14 node_ID15 node_ID16
#node_ID17 node_ID18 node_ID19 node_ID20
        91      3262      3263      3205      3204      3264      3265      3266      3267
      4154      3956      3951      3952      4155      4156      3957      3954
      4157      4162      4166      4158
        92      3264      3265      3266      3267      3268      3269      3270      3271
      4157      4162      4166      4158      4159      4163      4167      4172
      4175      4180      4184      4176
        93      3268      3269      3270      3271      3272      3273      3274      3275
      4175      4180      4184      4176      4177      4181      4185      4191
      4195      4201      4205      4196
        94      3247      3151      3150      3245      3276      3277      3278      3279
      3688      3682      3683      4102      4108      3689      3685      4105
      4212      4217      4222      4213
        95      3276      3277      3278      3279      3280      3281      3282      3283
      4212      4217      4222      4213      4214      4218      4224      4227
      4230      4235      4241      4231
        96      3280      3281      3282      3283      3284      3285      3286      3287
      4230      4235      4241      4231      4232      4236      4243      4247
      4250      4255      4259      4251
        97      3214      3215      3211      3210      3288      3289      3290      3291
      3998      3987      3980      3981      3999      4000      3990      3985
# ... 790 like lines cut
#---1----|----2----|----3----|----4----|----5----|----6----|----7----|----8----|----9----|---10----|
#-  1. PART:                                                                    
#---1----|----2----|----3----|----4----|----5----|----6----|----7----|----8----|----9----|---10----|
/PART/1
#part_title                                                                                         
beamPart                                                                                            
#  prop_ID    mat_ID                         Thick
         1         1                              
#---1----|----2----|----3----|----4----|----5----|----6----|----7----|----8----|----9----|---10----|
#-  2. MATERIAL DEFINITION:                                                                    
#---1----|----2----|----3----|----4----|----5----|----6----|----7----|----8----|----9----|---10----|
/MAT/ELAST/1
beamMaterial                                                                                        
#              RHO_I
              2700.0
#                  E                  nu
       70000000000.0                 0.3
#---1----|----2----|----3----|----4----|----5----|----6----|----7----|----8----|----9----|---10----|
#-  3. PROPERTIES DEFINITION:                                                                    
#---1----|----2----|----3----|----4----|----5----|----6----|----7----|----8----|----9----|---10----|
/PROP/SOLID/1
beamProperty                                                                                        
#   Isolid    Ismstr      Iale     Icpre  Itetra10     Inpts   Itetra4    Iframe                  Dn
        16         0         0         0         0         0         0         0                 0.0
#                 qa                  qb                   h              Lambda                  Mu
                 0.0                 0.0                 0.0                 0.0                 0.0
#         deltaT_min            Vdef_min            Vdef_max             ASP_max             COL_min
                 0.0                 0.0                 0.0                 0.0                 0.0
#---1----|----2----|----3----|----4----|----5----|----6----|----7----|----8----|----9----|---10----|
#-  4. BOUNDARY CONDITIONS:                                                                    
#---1----|----2----|----3----|----4----|----5----|----6----|----7----|----8----|----9----|---10----|
/BCS/1
fixedWallZ0                                                                                         
#  Tra rot   skew_ID  grnod_ID
   111 000         0         1
#---1----|----2----|----3----|----4----|----5----|----6----|----7----|----8----|----9----|---10----|
/GRNOD/NODE/1
#title                                                                                              
fixedEnd                                                                                              
# item_ID1  item_ID2  item_ID3  item_ID4  item_ID5  item_ID6  item_ID7  item_ID8  item_ID9 item_ID10
      3170      3171      3172      3173      3309      3310      3313      3314      3317      3318
      3621      3622      3623      3633      3634      3635      3772      3773      3774      3776
      3778      3781      3785      4353      4355      4357      4361      4370      4372      4375
      4379      4389      4392      5371      5372      5374      5376      5379      5386      5387
#---1----|----2----|----3----|----4----|----5----|----6----|----7----|----8----|----9----|---10----|
#-  5. INTERFACES:                                                                    
#---1----|----2----|----3----|----4----|----5----|----6----|----7----|----8----|----9----|---10----|
/GRNOD/NODE/2
#title                                                                                              
interface
# item_ID1  item_ID2  item_ID3  item_ID4  item_ID5  item_ID6  item_ID7  item_ID8  item_ID9 item_ID10
      3140      3141      3142      3143      3144      3145      3146      3147      3148      3149
      3150      3151      3152      3153      3154      3155      3156      3157      3158      3159
      3160      3161      3162      3163      3164      3165      3166      3167      3168      3169
      3170      3171      3172      3173      3174      3175      3176      3177      3178      3179
      3180      3181      3182      3183      3184      3185      3186      3187      3188      3189
      3190      3191      3192      3193      3194      3195      3196      3197      3198      3199
      3200      3201      3202      3203      3204      3205      3206      3207      3208      3209
      3210      3211      3212      3213      3214      3215      3216      3217      3218      3219
      3220      3221      3222      3223      3224      3225      3226      3227      3228      3229
      3230      3231      3232      3233      3234      3235      3236      3237      3238      3239
      3240      3241      3242      3243      3244      3245      3246      3247      3248      3249
      3250      3251      3252      3253      3254      3255      3256      3257      3258      3259
      3260      3261      3262      3263      3266      3267      3270      3271      3272      3273
      3274      3275      3284      3285      3286      3287      3296      3297      3298      3299
      3306      3307      3308      3317      3318      3319      3320      3329      3330      3331
      3332      3341      3342      3343      3344      3351      3352      3353      3356      3365
      3366      3367      3368      3373      3374      3383      3384      3385      3386      3395
      3396      3397      3398      3403      3404      3406      3408      3409      3410      3419
      3420      3421      3422      3431      3432      3433      3434      3437      3444      3445
      3446      3451      3452      3459      3460      3461      3464      3467      3470      3475
# ... 50 like lines cut
##--------------------------------------------------------------------------------------------------
## End Of Radioss Block Deck
##--------------------------------------------------------------------------------------------------
/END