#RADIOSS STARTER
##========================================================================================
##
## Radioss Input Deck Generated by HyperMesh Version  : 2026.0.0.27
## Generated using HyperMesh-Radioss Template Version : 2026.0.0.27-290296
## Date: 03-05-2026   Time: 15:28:33
##
##========================================================================================
##
##
/BEGIN
#Runname                                                                        
solid-openradioss                                                               
#   Invers      Irun
      2024         0
#    Input_mass_unit   Input_length_unit     Input_time_unit
                  kg                   m                   s
#     Work_mass_unit    Work_length_unit      Work_time_unit
                  kg                   m                   s
##
#---1----|----2----|----3----|----4----|----5----|----6----|----7----|----8----|----9----|---10----|
/NODE
#  node_ID                  Xc                  Yc                  Zc
        85                 7.4                 0.0                 0.0
        86    7.40833333333333                 0.0                 0.0
        87    7.41666666666667                 0.0                 0.0
        88               7.425                 0.0                 0.0
        89               7.425                 0.0              0.0625
        90               7.425                 0.0               0.125
        91               7.425                 0.0              0.1875
        92               7.425                 0.0                0.25
        93    7.41666666666667                 0.0                0.25
        94    7.40833333333333                 0.0                0.25
        95                 7.4                 0.0                0.25
        96                 7.4                 0.0              0.1875
        97                 7.4                 0.0               0.125
        98                 7.4                 0.0              0.0625
        99    7.41666666666667                 0.0               0.125
       100    7.40833333333333                 0.0               0.125
       101    7.41666666666667                 0.0              0.0625
       102    7.40833333333333                 0.0              0.0625
       103    7.41666666666667                 0.0              0.1875
       104    7.40833333333333                 0.0              0.1875
# ... 11391 like lines cut
#---1----|----2----|----3----|----4----|----5----|----6----|----7----|----8----|----9----|---10----|
/BRIC20/1
#  bric_ID  node_ID1  node_ID2  node_ID3  node_ID4  node_ID5  node_ID6  node_ID7  node_ID8
# node_ID9 node_ID10 node_ID11 node_ID12 node_ID13 node_ID14 node_ID15 node_ID16
#node_ID17 node_ID18 node_ID19 node_ID20
        13       100       102        98        97       105       106       107       108
      3364      3355      3350      3351      3367      3370      3356      3353
      3374      3379      3383      3375
        14       105       106       107       108       109       110       111       112
      3374      3379      3383      3375      3376      3380      3384      3389
      3392      3397      3401      3393
        15       109       110       111       112       113       114       115       116
      3392      3397      3401      3393      3394      3398      3402      3408
      3412      3417      3421      3413
        16       113       114       115       116       117       118       119       120
      3412      3417      3421      3413      3414      3418      3422      3428
      3432      3437      3441      3433
        17       117       118       119       120       121       122       123       124
      3432      3437      3441      3433      3434      3438      3442      3448
      3452      3457      3461      3453
        18       121       122       123       124       125       126       127       128
      3452      3457      3461      3453      3454      3458      3462      3468
      3472      3477      3481      3473
        19       125       126       127       128       129       130       131       132
      3472      3477      3481      3473      3474      3478      3482      3488
# ... 5740 like lines cut
#---1----|----2----|----3----|----4----|----5----|----6----|----7----|----8----|----9----|---10----|
#-  1. PART:                                                                    
#---1----|----2----|----3----|----4----|----5----|----6----|----7----|----8----|----9----|---10----|
/PART/1
#part_title                                                                                         
beamPart                                                                                            
#  prop_ID    mat_ID                         Thick
         1         1                              
#---1----|----2----|----3----|----4----|----5----|----6----|----7----|----8----|----9----|---10----|
#-  2. MATERIAL DEFINITION:                                                                    
#---1----|----2----|----3----|----4----|----5----|----6----|----7----|----8----|----9----|---10----|
/MAT/ELAST/1
beamMaterial                                                                                        
#              RHO_I
              2700.0
#                  E                  nu
       70000000000.0                 0.3
#---1----|----2----|----3----|----4----|----5----|----6----|----7----|----8----|----9----|---10----|
#-  3. PROPERTIES DEFINITION:                                                                    
#---1----|----2----|----3----|----4----|----5----|----6----|----7----|----8----|----9----|---10----|
/PROP/SOLID/1
beamProperty                                                                                        
#   Isolid    Ismstr      Iale     Icpre  Itetra10     Inpts   Itetra4    Iframe                  Dn
        16         0         0         0         0         0         0         0                 0.0
#                 qa                  qb                   h              Lambda                  Mu
                 0.0                 0.0                 0.0                 0.0                 0.0
#         deltaT_min            Vdef_min            Vdef_max             ASP_max             COL_min
                 0.0                 0.0                 0.0                 0.0                 0.0
#---1----|----2----|----3----|----4----|----5----|----6----|----7----|----8----|----9----|---10----|
#-  4. BOUNDARY CONDITIONS:                                                                    
#---1----|----2----|----3----|----4----|----5----|----6----|----7----|----8----|----9----|---10----|
/BCS/1
fixedWallZ0                                                                                         
#  Tra rot   skew_ID  grnod_ID
   111 000         0         1
#---1----|----2----|----3----|----4----|----5----|----6----|----7----|----8----|----9----|---10----|
/GRNOD/NODE/1
#title                                                                                              
fixedEnd
# item_ID1  item_ID2  item_ID3  item_ID4  item_ID5  item_ID6  item_ID7  item_ID8  item_ID9 item_ID10
        85        86        87        88        89        90        91        92        93        94
        95        96        97        98        99       100       101       102       103       104
      3305      3306      3309      3311      3313      3314      3317      3320      3321      3323
      3324      3327      3329      3332      3335      3336      3339      3341      3344      3347
      3348      3350      3351      3355      3357      3358      3360      3364      3366      3368
      3371
#---1----|----2----|----3----|----4----|----5----|----6----|----7----|----8----|----9----|---10----|
#-  5. INTERFACES:                                                                    
#---1----|----2----|----3----|----4----|----5----|----6----|----7----|----8----|----9----|---10----|
/GRNOD/NODE/2
#title                                                                                              
interface
# item_ID1  item_ID2  item_ID3  item_ID4  item_ID5  item_ID6  item_ID7  item_ID8  item_ID9 item_ID10
        85        88        89        90        91        92        95        96        97        98
       107       108       111       112       115       116       119       120       123       124
       127       128       131       132       135       136       139       140       143       144
       147       148       151       152       155       156       159       160       163       164
       167       168       171       172       175       176       179       180       183       184
       187       188       191       192       195       196       199       200       203       204
       207       208       211       212       215       216       219       220       223       224
       227       228       231       232       235       236       239       240       243       244
       247       248       251       252       255       256       259       260       263       264
       267       268       271       272       275       276       279       280       283       284
       287       288       291       292       295       296       299       300       303       304
       307       308       311       312       315       316       319       320       323       324
       327       328       331       332       335       336       339       340       343       344
       347       348       351       352       355       356       359       360       363       364
       367       368       371       372       375       376       379       380       383       384
       387       388       391       392       395       396       399       400       403       404
       407       408       411       412       415       416       419       420       423       424
       427       428       431       432       435       436       439       440       443       444
       447       448       451       452       455       456       459       460       463       464
       467       468       471       472       475       476       479       480       483       484
# ... 434 like lines cut
##--------------------------------------------------------------------------------------------------
## End Of Radioss Block Deck
##--------------------------------------------------------------------------------------------------
/END
