#RADIOSS STARTER
##========================================================================================
##
## Radioss Input Deck Generated by HyperMesh Version  : 2026.0.0.27
## Generated using HyperMesh-Radioss Template Version : 2026.0.0.27-290296
## Date: 02-10-2026   Time: 15:55:04
##
##========================================================================================
##
##
/BEGIN
#Runname                                                                        
pulsatingFlap                                                                  
#   Invers      Irun
      2024         0
#    Input_mass_unit   Input_length_unit     Input_time_unit
                  kg                   m                   s
#     Work_mass_unit    Work_length_unit      Work_time_unit
                  kg                   m                   s
##
#---1----|----2----|----3----|----4----|----5----|----6----|----7----|----8----|----9----|---10----|
/NODE
#  node_ID                  Xc                  Yc                  Zc
      1065                0.57                 0.0                -0.3
      1066                0.57            0.021875                -0.3
      1067                0.57             0.04375                -0.3
      1068                0.57            0.065625                -0.3
      1069                0.57              0.0875                -0.3
      1070                0.57            0.109375                -0.3
      1071                0.57             0.13125                -0.3
      1072                0.57            0.153125                -0.3
      1073                0.57               0.175                -0.3
      1074                0.57            0.196875                -0.3
      1075                0.57             0.21875                -0.3
      1076                0.57            0.240625                -0.3
      1077                0.57              0.2625                -0.3
      1078                0.57            0.284375                -0.3
      1079                0.57             0.30625                -0.3
      1080                0.57            0.328125                -0.3
      1081                0.57                0.35                -0.3
      1082                0.57                0.35              -0.275
      1083                0.57                0.35               -0.25
      1084                0.57                0.35              -0.225
# ... 3805 like lines cut
#---1----|----2----|----3----|----4----|----5----|----6----|----7----|----8----|----9----|---10----|
/BRICK/1
# brick_ID  node_ID1  node_ID2  node_ID3  node_ID4  node_ID5  node_ID6  node_ID7  node_ID8
       385      1126      1125      1432      1433      1490      1491      1492      1493
       386      1490      1491      1492      1493      1494      1495      1496      1497
       387      1494      1495      1496      1497      1498      1499      1500      1501
       388      1498      1499      1500      1501      1502      1503      1504      1505
       389      1502      1503      1504      1505      1506      1507      1508      1509
       390      1506      1507      1508      1509      1510      1511      1512      1513
       391      1510      1511      1512      1513      1514      1515      1516      1517
       392      1514      1515      1516      1517      1518      1519      1520      1521
       393      1469      1414      1415      1471      1522      1523      1524      1525
       394      1522      1523      1524      1525      1526      1527      1528      1529
       395      1526      1527      1528      1529      1530      1531      1532      1533
       396      1530      1531      1532      1533      1534      1535      1536      1537
       397      1534      1535      1536      1537      1538      1539      1540      1541
       398      1538      1539      1540      1541      1542      1543      1544      1545
       399      1542      1543      1544      1545      1546      1547      1548      1549
       400      1546      1547      1548      1549      1550      1551      1552      1553
       401      1122      1121      1120      1438      1554      1555      1556      1557
       402      1554      1555      1556      1557      1558      1559      1560      1561
       403      1558      1559      1560      1561      1562      1563      1564      1565
       404      1562      1563      1564      1565      1566      1567      1568      1569
# ... 3052 like lines cut
#---1----|----2----|----3----|----4----|----5----|----6----|----7----|----8----|----9----|---10----|
#-  1. PART:                                                                    
#---1----|----2----|----3----|----4----|----5----|----6----|----7----|----8----|----9----|---10----|
/PART/1
#part_title                                                                                         
flapPart                                                                                            
#  prop_ID    mat_ID                         Thick
         1         1                              
#---1----|----2----|----3----|----4----|----5----|----6----|----7----|----8----|----9----|---10----|
#-  2. MATERIAL DEFINITION:                                                                    
#---1----|----2----|----3----|----4----|----5----|----6----|----7----|----8----|----9----|---10----|
/MAT/OGDEN/1
flapMaterial                                                                                           
#              RHO_I
                 250
#                 Nu           sigma_cut           funIDbulk         Fscale_bulk         M    I_form
                 0.4                   0                   0                   0         0         1  
#               Mu_1                Mu_2                Mu_3                Mu_4                Mu_5
            178.5714                   0                   
#               Mu_6                Mu_7                Mu_8                Mu_9               Mu_10
                   
#            alpha_1             alpha_2             alpha_3             alpha_4             alpha_5
                   2                   0                   
#            alpha_6             alpha_7             alpha_8             alpha_9            alpha_10
                   
#---1----|----2----|----3----|----4----|----5----|----6----|----7----|----8----|----9----|---10----|
#-  3. PROPERTIES DEFINITION:                                                                    
#---1----|----2----|----3----|----4----|----5----|----6----|----7----|----8----|----9----|---10----|
/PROP/SOLID/1
flapProperty                                                                                        
#   Isolid    Ismstr      Iale     Icpre  Itetra10     Inpts   Itetra4    Iframe                  Dn
         1         0         0         0         0         0         0         0                 0.0
#                 qa                  qb                   h              Lambda                  Mu
                 0.0                 0.0                 0.0                 0.0                 0.0
#         deltaT_min            Vdef_min            Vdef_max             ASP_max             COL_min
                 0.0                 0.0                 0.0                 0.0                 0.0
#---1----|----2----|----3----|----4----|----5----|----6----|----7----|----8----|----9----|---10----|
#-  4. BOUNDARY CONDITIONS:                                                                    
#---1----|----2----|----3----|----4----|----5----|----6----|----7----|----8----|----9----|---10----|
/BCS/1
fixedWallZ0                                                                                         
#  Tra rot   skew_ID  grnod_ID
   111 000         0         1
#---1----|----2----|----3----|----4----|----5----|----6----|----7----|----8----|----9----|---10----|
/GRNOD/NODE/1
#title                                                                                              
fixedEnd                                                                                            
# item_ID1  item_ID2  item_ID3  item_ID4  item_ID5  item_ID6  item_ID7  item_ID8  item_ID9 item_ID10
      1065      1121      1122      1123      1124      1125      1126      1127      1128      1129
      1130      1131      1132      1133      1134      1135      1136      1137      1138      1139
      1140      1141      1142      1143      1144      1490      1491      1494      1495      1498
      1499      1502      1503      1506      1507      1510      1511      1514      1515      1518
      1519      1554      1555      1558      1559      1562      1563      1566      1567      1570
      1571      1574      1575      1578      1579      1582      1583      2026      2027      2030
      2031      2034      2035      2038      2039      2042      2043      2046      2047      2050
      2051      2054      2055      2714      2715      2718      2719      2722      2723      2726
      2727      2730      2731      2734      2735      2738      2739      2742      2743      2762
      2763      2766      2767      2770      2771      2774      2775      2778      2779      2782
      2783      2786      2787      2790      2791      3226      3227      3230      3231      3234
      3235      3238      3239      3242      3243      3246      3247      3250      3251      3254
      3255      3458      3459      3462      3463      3466      3467      3470      3471      3474
      3475      3478      3479      3482      3483      3486      3487      3586      3588      3590
      3592      3594      3596      3598      3600      4106      4107      4109      4110      4112
      4113      4115      4116      4118      4119      4121      4122      4124      4125      4127
      4128      4234      4235      4236      4237      4238      4239      4240      4241      4242
      4243      4244      4245      4246      4247      4248      4249      4370      4371      4372
      4373      4374      4375      4376      4377      4378      4379      4380      4381      4382
      4383      4384      4385      4490      4492      4494      4496      4498      4500      4502
      4504      4682      4683      4684      4685      4686      4687      4688      4689      4730
      4731      4732      4733      4734      4735      4736      4737      4874      4875      4876
      4877      4878      4879      4880      4881
#---1----|----2----|----3----|----4----|----5----|----6----|----7----|----8----|----9----|---10----|
#-  5. INTERFACES:                                                                    
#---1----|----2----|----3----|----4----|----5----|----6----|----7----|----8----|----9----|---10----|
/GRNOD/NODE/2
#title                                                                                              
interface                                                                                           
# item_ID1  item_ID2  item_ID3  item_ID4  item_ID5  item_ID6  item_ID7  item_ID8  item_ID9 item_ID10
      1065      1066      1067      1068      1069      1070      1071      1072      1073      1074
      1075      1076      1077      1078      1079      1080      1081      1082      1083      1084
      1085      1086      1087      1088      1089      1090      1091      1092      1093      1094
      1095      1096      1097      1098      1099      1100      1101      1102      1103      1104
      1105      1106      1107      1108      1109      1110      1111      1112      1113      1114
      1115      1116      1117      1118      1119      1120      1121      1122      1123      1124
      1125      1126      1127      1128      1129      1130      1131      1132      1133      1134
      1135      1136      1137      1138      1139      1140      1141      1142      1143      1144
      1145      1146      1147      1148      1149      1150      1151      1152      1153      1154
      1155      1156      1157      1158      1159      1160      1161      1162      1163      1164
      1165      1166      1167      1168      1169      1170      1171      1172      1173      1174
      1175      1176      1177      1178      1179      1180      1181      1182      1183      1184
      1185      1186      1187      1188      1189      1190      1191      1192      1193      1194
      1195      1196      1197      1198      1199      1200      1201      1202      1203      1204
      1205      1206      1207      1208      1209      1210      1211      1212      1213      1214
      1215      1216      1217      1218      1219      1220      1221      1222      1223      1224
      1225      1226      1227      1228      1229      1230      1231      1232      1233      1234
      1235      1236      1237      1238      1239      1240      1241      1242      1243      1244
      1245      1246      1247      1248      1249      1250      1251      1252      1253      1254
      1255      1256      1257      1258      1259      1260      1261      1262      1263      1264
# ... 105 like lines cut
#---1----|----2----|----3----|----4----|----5----|----6----|----7----|----8----|----9----|---10----|
#-  6. TIME HISTORIES:                                                                    
#---1----|----2----|----3----|----4----|----5----|----6----|----7----|----8----|----9----|---10----|
/TH/NODE/1
#thgroup_name
interfaceTimeHistory                                                                                        
#  var_ID1   var_ID2   var_ID3   var_ID4   var_ID5   var_ID6   var_ID7   var_ID8   var_ID9  var_ID10
        DX        DY        DZ     REACX     REACY     REACZ
#  node_ID   skew_ID                                         node_name
      1065         0                                                                                
      1066         0                                                                                
      1067         0                                                                                
      1068         0                                                                                
      1069         0                                                                                
      1070         0                                                                                
      1071         0                                                                                
      1072         0                                                                                
      1073         0                                                                                
      1074         0                                                                                
      1075         0                                                                                
      1076         0                                                                                
      1077         0                                                                                
      1078         0                                                                                
      1079         0                                                                                
      1080         0                                                                                
      1081         0                                                                                
      1082         0                                                                                
      1083         0                                                                                
      1084         0                                                                                
# ... 1229 like lines cut
##--------------------------------------------------------------------------------------------------
## End Of Radioss Block Deck
##--------------------------------------------------------------------------------------------------
/END